*
*---- act defproc: syn::ring::connect_exprblk_assign<1> -----
* raw ports: 
*
* empty subckt
*.POWER VDD Vdd
*.POWER GND GND
*.POWER NSUB GND
*.POWER PSUB Vdd
* end empty subckt
*---- end of process: connect_exprblk_assign<1> -----
*
*---- act defproc: std::cells::BUFX2<> -----
* raw ports:  A Y
*
.subckt _0_0std_0_0cells_0_0BUFX2 A Y
*.PININFO A:I Y:O
*.POWER VDD Vdd
*.POWER GND GND
*.POWER NSUB GND
*.POWER PSUB Vdd
*
* --- node flags ---
*
* __Y (combinational)
* Y (combinational)
*
* --- end node flags ---
*
xM0_ Vdd A __Y Vdd sky130_fd_pr__pfet_01v8  W=0.6 L=0.15 nrs=1 nrd=1 nf=1
xM1_ Vdd __Y Y Vdd sky130_fd_pr__pfet_01v8  W=1.125 L=0.15 nrs=1 nrd=1 nf=1
xM2_ GND A __Y GND sky130_fd_pr__nfet_01v8 W=0.45 L=0.15 nrs=1 nrd=1 nf=1
xM3_ GND __Y Y GND sky130_fd_pr__nfet_01v8 W=0.75 L=0.15 nrs=1 nrd=1 nf=1
.ends
*---- end of process: BUFX2<> -----
*
*---- act defproc: std::cells::INVX1<> -----
* raw ports:  A Y
*
.subckt _0_0std_0_0cells_0_0INVX1 A Y
*.PININFO A:I Y:O
*.POWER VDD Vdd
*.POWER GND GND
*.POWER NSUB GND
*.POWER PSUB Vdd
*
* --- node flags ---
*
* Y (combinational)
*
* --- end node flags ---
*
xM0_ Vdd A Y Vdd sky130_fd_pr__pfet_01v8  W=0.6 L=0.15 nrs=1 nrd=1 nf=1
xM1_ GND A Y GND sky130_fd_pr__nfet_01v8 W=0.45 L=0.15 nrs=1 nrd=1 nf=1
.ends
*---- end of process: INVX1<> -----
*
*---- act defproc: std::cells::TIELOX1<> -----
* raw ports:  Y
*
.subckt _0_0std_0_0cells_0_0TIELOX1 Y
*.PININFO Y:O
*.POWER VDD Vdd
*.POWER GND GND
*.POWER NSUB GND
*.POWER PSUB Vdd
*
* --- node flags ---
*
* Y (combinational)
* x (combinational)
*
* --- end node flags ---
*
xM0_ Vdd x x Vdd sky130_fd_pr__pfet_01v8  W=0.75 L=0.15 nrs=1 nrd=1 nf=1
xM1_ GND x Y GND sky130_fd_pr__nfet_01v8 W=0.45 L=0.15 nrs=1 nrd=1 nf=1
.ends
*---- end of process: TIELOX1<> -----
*
*---- act defproc: syn::expr::blk_0ti012c_1_6_1_9tmp<> -----
* raw ports:  in__2_50_6 in__1_50_6 in__1_51_6 in__1_52_6 in__1_53_6 in__1_54_6 in__1_55_6 in__0_50_6 out_50_6 out_51_6 out_52_6 out_53_6 out_54_6 out_55_6 out_56_6 out_57_6 out_58_6
*
.subckt _0_0syn_0_0expr_0_0blk_0ti012c_1_6_1_9tmp in____2__50__6 in____1__50__6 in____1__51__6 in____1__52__6 in____1__53__6 in____1__54__6 in____1__55__6 in____0__50__6 out__50__6 out__51__6 out__52__6 out__53__6 out__54__6 out__55__6 out__56__6 out__57__6 out__58__6
*.PININFO in____2__50__6:I in____1__50__6:I in____1__51__6:I in____1__52__6:I in____1__53__6:I in____1__54__6:I in____1__55__6:I in____0__50__6:I out__50__6:O out__51__6:O out__52__6:O out__53__6:O out__54__6:O out__55__6:O out__56__6:O out__57__6:O out__58__6:O
*.POWER VDD Vdd
*.POWER GND GND
*.POWER NSUB GND
*.POWER PSUB Vdd
xg1 in____2__50__6 out__50__6 _0_0std_0_0cells_0_0BUFX2
xg5 in____1__53__6 out__54__6 _0_0std_0_0cells_0_0BUFX2
xg3 in____1__51__6 out__52__6 _0_0std_0_0cells_0_0BUFX2
xg0 in____0__50__6 out__58__6 _0_0std_0_0cells_0_0INVX1
x__nref__0 out__57__6 _0_0std_0_0cells_0_0TIELOX1
xg4 in____1__52__6 out__53__6 _0_0std_0_0cells_0_0BUFX2
xg6 in____1__54__6 out__55__6 _0_0std_0_0cells_0_0BUFX2
xg2 in____1__50__6 out__51__6 _0_0std_0_0cells_0_0BUFX2
xg7 in____1__55__6 out__56__6 _0_0std_0_0cells_0_0BUFX2
.ends
*---- end of process: blk_0ti012c_1_6_1_9tmp<> -----
*
*---- act defproc: syn::expr::blk_0ti012c_1_6_1_9<> -----
* raw ports:  in_2[0] in_1[0] in_1[1] in_1[2] in_1[3] in_1[4] in_1[5] in_0[0] out[0] out[1] out[2] out[3] out[4] out[5] out[6] out[7] out[8]
*
.subckt _0_0syn_0_0expr_0_0blk_0ti012c_1_6_1_9 in__2_50_6 in__1_50_6 in__1_51_6 in__1_52_6 in__1_53_6 in__1_54_6 in__1_55_6 in__0_50_6 out_50_6 out_51_6 out_52_6 out_53_6 out_54_6 out_55_6 out_56_6 out_57_6 out_58_6
*.PININFO in__2_50_6:I in__1_50_6:I in__1_51_6:I in__1_52_6:I in__1_53_6:I in__1_54_6:I in__1_55_6:I in__0_50_6:I out_50_6:O out_51_6:O out_52_6:O out_53_6:O out_54_6:O out_55_6:O out_56_6:O out_57_6:O out_58_6:O
*.POWER VDD Vdd
*.POWER GND GND
*.POWER NSUB GND
*.POWER PSUB Vdd
x__passthru__ in__2_50_6 in__1_50_6 in__1_51_6 in__1_52_6 in__1_53_6 in__1_54_6 in__1_55_6 in__0_50_6 out_50_6 out_51_6 out_52_6 out_53_6 out_54_6 out_55_6 out_56_6 out_57_6 out_58_6 _0_0syn_0_0expr_0_0blk_0ti012c_1_6_1_9tmp
.ends
*---- end of process: blk_0ti012c_1_6_1_9<> -----
*
*---- act defproc: syn::ring::var_access<9> -----
* raw ports: 
*
* empty subckt
*.POWER VDD Vdd
*.POWER GND GND
*.POWER NSUB GND
*.POWER PSUB Vdd
* end empty subckt
*---- end of process: var_access<9> -----
*
*---- act defproc: syn::ring::var_access<2> -----
* raw ports: 
*
* empty subckt
*.POWER VDD Vdd
*.POWER GND GND
*.POWER NSUB GND
*.POWER PSUB Vdd
* end empty subckt
*---- end of process: var_access<2> -----
*
*---- act defproc: syn::ring::elem_c_skip<> -----
* raw ports: 
*
* empty subckt
*.POWER VDD Vdd
*.POWER GND GND
*.POWER NSUB GND
*.POWER PSUB Vdd
* end empty subckt
*---- end of process: elem_c_skip<> -----
*
*---- act defproc: syn::ring::gp_connect<> -----
* raw ports: 
*
* empty subckt
*.POWER VDD Vdd
*.POWER GND GND
*.POWER NSUB GND
*.POWER PSUB Vdd
* end empty subckt
*---- end of process: gp_connect<> -----
*
*---- act defproc: cell::g0n1n2naa_012aox0<> -----
* raw ports:  in[0] in[1] in[2] out
*
.subckt _0_0cell_0_0g0n1n2naa_012aox0 in_50_6 in_51_6 in_52_6 out
*.PININFO in_50_6:I in_51_6:I in_52_6:I out:O
*.POWER VDD Vdd
*.POWER GND GND
*.POWER NSUB GND
*.POWER PSUB Vdd
*
* --- node flags ---
*
* out (state-holding): pup_reff=0.6; pdn_reff=0.666667
*
* --- end node flags ---
*
xM0_ Vdd in_50_6 #8 Vdd sky130_fd_pr__pfet_01v8  W=0.75 L=0.15 nrs=1 nrd=1 nf=1
xM1_ Vdd out #fb9# Vdd sky130_fd_pr__pfet_01v8  W=0.75 L=0.3 nrs=1 nrd=1 nf=1
xM2_keeper Vdd GND #10 Vdd sky130_fd_pr__pfet_01v8  W=0.45 L=1.8 nrs=1 nrd=1 nf=1
xM3_ GND in_50_6 out GND sky130_fd_pr__nfet_01v8 W=0.45 L=0.15 nrs=1 nrd=1 nf=1
xM4_ GND in_51_6 #4 GND sky130_fd_pr__nfet_01v8 W=0.45 L=0.15 nrs=1 nrd=1 nf=1
xM5_ GND out #fb9# GND sky130_fd_pr__nfet_01v8 W=0.45 L=0.3 nrs=1 nrd=1 nf=1
xM6_keeper GND Vdd #11 GND sky130_fd_pr__nfet_01v8 W=0.45 L=3.9 nrs=1 nrd=1 nf=1
xM7_ #4 in_52_6 out GND sky130_fd_pr__nfet_01v8 W=0.45 L=0.15 nrs=1 nrd=1 nf=1
xM8_ #7 in_52_6 out Vdd sky130_fd_pr__pfet_01v8  W=0.75 L=0.15 nrs=1 nrd=1 nf=1
xM9_keeper #10 #fb9# out Vdd sky130_fd_pr__pfet_01v8  W=0.45 L=0.15 nrs=1 nrd=1 nf=1
xM10_keeper #11 #fb9# out GND sky130_fd_pr__nfet_01v8 W=0.45 L=0.15 nrs=1 nrd=1 nf=1
xM11_ #8 in_51_6 #7 Vdd sky130_fd_pr__pfet_01v8  W=0.75 L=0.15 nrs=1 nrd=1 nf=1
.ends
*---- end of process: g0n1n2naa_012aox0<> -----
*
*---- act defproc: cell::ginvx0<> -----
* raw ports:  in[0] out
*
.subckt _0_0cell_0_0ginvx0 in_50_6 out
*.PININFO in_50_6:I out:O
*.POWER VDD Vdd
*.POWER GND GND
*.POWER NSUB GND
*.POWER PSUB Vdd
*
* --- node flags ---
*
* out (combinational)
*
* --- end node flags ---
*
xM0_ Vdd in_50_6 out Vdd sky130_fd_pr__pfet_01v8  W=0.6 L=0.15 nrs=1 nrd=1 nf=1
xM1_ GND in_50_6 out GND sky130_fd_pr__nfet_01v8 W=0.45 L=0.15 nrs=1 nrd=1 nf=1
.ends
*---- end of process: ginvx0<> -----
*
*---- act defproc: syn::ring::inverter<> -----
* raw ports:  in out
*
.subckt _0_0syn_0_0ring_0_0inverter in out
*.PININFO in:I out:O
*.POWER VDD Vdd
*.POWER GND GND
*.POWER NSUB GND
*.POWER PSUB Vdd
xcx0 in out _0_0cell_0_0ginvx0
.ends
*---- end of process: inverter<> -----
*
*---- act defproc: syn::ring::elem_c_itb<> -----
* raw ports:  m1.d.d[0] m1.a p1.d.d[0] p1.a
*
.subckt _0_0syn_0_0ring_0_0elem_c_itb m1_ad_ad_50_6 m1_aa p1_ad_ad_50_6 p1_aa
*.PININFO m1_ad_ad_50_6:I m1_aa:O p1_ad_ad_50_6:O p1_aa:I
*.POWER VDD Vdd
*.POWER GND GND
*.POWER NSUB GND
*.POWER PSUB Vdd
xcx0 Reset m1_ad_ad_50_6 p1_aa p1_ad_ad_50_6 _0_0cell_0_0g0n1n2naa_012aox0
xm1__inv p1_ad_ad_50_6 m1_aa _0_0syn_0_0ring_0_0inverter
.ends
*---- end of process: elem_c_itb<> -----
*
*---- act defproc: syn::ring::delay_line_0<1> -----
* raw ports:  in out
*
.subckt _0_0syn_0_0ring_0_0delay__line__0_31_4 in out
*.PININFO in:I out:O
*.POWER VDD Vdd
*.POWER GND GND
*.POWER NSUB GND
*.POWER PSUB Vdd
xinvs_50_6 in invs_50_6_aY _0_0std_0_0cells_0_0INVX1
xinvs_51_6 invs_50_6_aY out _0_0std_0_0cells_0_0INVX1
.ends
*---- end of process: delay_line_0<1> -----
*
*---- act defproc: syn::ring::delay_selector<0,1> -----
* raw ports:  in out
*
.subckt _0_0syn_0_0ring_0_0delay__selector_30_71_4 in out
*.PININFO in:I out:O
*.POWER VDD Vdd
*.POWER GND GND
*.POWER NSUB GND
*.POWER PSUB Vdd
xd0 in out _0_0syn_0_0ring_0_0delay__line__0_31_4
.ends
*---- end of process: delay_selector<0,1> -----
*
*---- act defproc: syn::ring::delay_line<1> -----
* raw ports:  in out
*
.subckt _0_0syn_0_0ring_0_0delay__line_31_4 in out
*.PININFO in:I out:O
*.POWER VDD Vdd
*.POWER GND GND
*.POWER NSUB GND
*.POWER PSUB Vdd
xdl in out _0_0syn_0_0ring_0_0delay__selector_30_71_4
.ends
*---- end of process: delay_line<1> -----
*
*---- act defproc: syn::ring::delay_line_chan<1> -----
* raw ports:  m1.d.d[0] p1.d.d[0]
*
.subckt _0_0syn_0_0ring_0_0delay__line__chan_31_4 m1_ad_ad_50_6 p1_ad_ad_50_6
*.PININFO m1_ad_ad_50_6:I p1_ad_ad_50_6:O
*.POWER VDD Vdd
*.POWER GND GND
*.POWER NSUB GND
*.POWER PSUB Vdd
xd m1_ad_ad_50_6 p1_ad_ad_50_6 _0_0syn_0_0ring_0_0delay__line_31_4
.ends
*---- end of process: delay_line_chan<1> -----
*
*---- act defproc: std::cells::AOI22X1<> -----
* raw ports:  A B C D Y
*
.subckt _0_0std_0_0cells_0_0AOI22X1 A B C D Y
*.PININFO A:I B:I C:I D:I Y:O
*.POWER VDD Vdd
*.POWER GND GND
*.POWER NSUB GND
*.POWER PSUB Vdd
*
* --- node flags ---
*
* Y (combinational)
*
* --- end node flags ---
*
xM0_ Vdd A #9 Vdd sky130_fd_pr__pfet_01v8  W=1.125 L=0.15 nrs=1 nrd=1 nf=1
xM1_ Vdd B #9 Vdd sky130_fd_pr__pfet_01v8  W=1.125 L=0.15 nrs=1 nrd=1 nf=1
xM2_ GND A #3 GND sky130_fd_pr__nfet_01v8 W=0.75 L=0.15 nrs=1 nrd=1 nf=1
xM3_ GND C #6 GND sky130_fd_pr__nfet_01v8 W=0.75 L=0.15 nrs=1 nrd=1 nf=1
xM4_ #3 B Y GND sky130_fd_pr__nfet_01v8 W=0.75 L=0.15 nrs=1 nrd=1 nf=1
xM5_ #6 D Y GND sky130_fd_pr__nfet_01v8 W=0.75 L=0.15 nrs=1 nrd=1 nf=1
xM6_ #9 C Y Vdd sky130_fd_pr__pfet_01v8  W=1.125 L=0.15 nrs=1 nrd=1 nf=1
xM7_ #9 D Y Vdd sky130_fd_pr__pfet_01v8  W=1.125 L=0.15 nrs=1 nrd=1 nf=1
.ends
*---- end of process: AOI22X1<> -----
*
*---- act defproc: cell::ginvx1<> -----
* raw ports:  in[0] out
*
.subckt _0_0cell_0_0ginvx1 in_50_6 out
*.PININFO in_50_6:I out:O
*.POWER VDD Vdd
*.POWER GND GND
*.POWER NSUB GND
*.POWER PSUB Vdd
*
* --- node flags ---
*
* out (combinational)
*
* --- end node flags ---
*
xM0_ Vdd in_50_6 out Vdd sky130_fd_pr__pfet_01v8  W=1.125 L=0.15 nrs=1 nrd=1 nf=1
xM1_ GND in_50_6 out GND sky130_fd_pr__nfet_01v8 W=0.75 L=0.15 nrs=1 nrd=1 nf=1
.ends
*---- end of process: ginvx1<> -----
*
*---- act defproc: cell::ginvx2<> -----
* raw ports:  in[0] out
*
.subckt _0_0cell_0_0ginvx2 in_50_6 out
*.PININFO in_50_6:I out:O
*.POWER VDD Vdd
*.POWER GND GND
*.POWER NSUB GND
*.POWER PSUB Vdd
*
* --- node flags ---
*
* out (combinational)
*
* --- end node flags ---
*
xM0_0_ Vdd in_50_6 out Vdd sky130_fd_pr__pfet_01v8  W=2.25 L=0.15 nrs=1 nrd=1 nf=1
xM0_1_ Vdd in_50_6 out Vdd sky130_fd_pr__pfet_01v8  W=2.25 L=0.15 nrs=1 nrd=1 nf=1
xM1_0_ GND in_50_6 out GND sky130_fd_pr__nfet_01v8 W=1.5 L=0.15 nrs=1 nrd=1 nf=1
xM1_1_ GND in_50_6 out GND sky130_fd_pr__nfet_01v8 W=1.5 L=0.15 nrs=1 nrd=1 nf=1
.ends
*---- end of process: ginvx2<> -----
*
*---- act defproc: std::gates::sigbuf<9> -----
* raw ports:  in out[0]
*
.subckt _0_0std_0_0gates_0_0sigbuf_39_4 in out_50_6
*.PININFO in:I out_50_6:O
*.POWER VDD Vdd
*.POWER GND GND
*.POWER NSUB GND
*.POWER PSUB Vdd
xcx0 in __out _0_0cell_0_0ginvx1
xcx1 __out out_50_6 _0_0cell_0_0ginvx2
.ends
*---- end of process: sigbuf<9> -----
*
*---- act defproc: cell::ginvx3<> -----
* raw ports:  in[0] out
*
.subckt _0_0cell_0_0ginvx3 in_50_6 out
*.PININFO in_50_6:I out:O
*.POWER VDD Vdd
*.POWER GND GND
*.POWER NSUB GND
*.POWER PSUB Vdd
*
* --- node flags ---
*
* out (combinational)
*
* --- end node flags ---
*
xM0_ Vdd in_50_6 out Vdd sky130_fd_pr__pfet_01v8  W=0.45 L=0.15 nrs=1 nrd=1 nf=1
xM1_ GND in_50_6 out GND sky130_fd_pr__nfet_01v8 W=0.45 L=0.15 nrs=1 nrd=1 nf=1
.ends
*---- end of process: ginvx3<> -----
*
*---- act defproc: std::gates::andtree<1,t> -----
* raw ports:  in[0] out
*
.subckt _0_0std_0_0gates_0_0andtree_31_7t_4 in_50_6 out
*.PININFO in_50_6:I out:O
*.POWER VDD Vdd
*.POWER GND GND
*.POWER NSUB GND
*.POWER PSUB Vdd
xcx0 in_50_6 out _0_0cell_0_0ginvx3
.ends
*---- end of process: andtree<1,t> -----
*
*---- act defproc: syn::ring::merge_mux_ohc_opt<2,9> -----
* raw ports:  c[0] c[1] din[0][0] din[0][1] din[0][2] din[0][3] din[0][4] din[0][5] din[0][6] din[0][7] din[0][8] din[1][0] din[1][1] din[1][2] din[1][3] din[1][4] din[1][5] din[1][6] din[1][7] din[1][8] dout[0] dout[1] dout[2] dout[3] dout[4] dout[5] dout[6] dout[7] dout[8]
*
.subckt _0_0syn_0_0ring_0_0merge__mux__ohc__opt_32_79_4 c_50_6 c_51_6 din_50_6_50_6 din_50_6_51_6 din_50_6_52_6 din_50_6_53_6 din_50_6_54_6 din_50_6_55_6 din_50_6_56_6 din_50_6_57_6 din_50_6_58_6 din_51_6_50_6 din_51_6_51_6 din_51_6_52_6 din_51_6_53_6 din_51_6_54_6 din_51_6_55_6 din_51_6_56_6 din_51_6_57_6 din_51_6_58_6 dout_50_6 dout_51_6 dout_52_6 dout_53_6 dout_54_6 dout_55_6 dout_56_6 dout_57_6 dout_58_6
*.PININFO c_50_6:I c_51_6:I din_50_6_50_6:I din_50_6_51_6:I din_50_6_52_6:I din_50_6_53_6:I din_50_6_54_6:I din_50_6_55_6:I din_50_6_56_6:I din_50_6_57_6:I din_50_6_58_6:I din_51_6_50_6:I din_51_6_51_6:I din_51_6_52_6:I din_51_6_53_6:I din_51_6_54_6:I din_51_6_55_6:I din_51_6_56_6:I din_51_6_57_6:I din_51_6_58_6:I dout_50_6:O dout_51_6:O dout_52_6:O dout_53_6:O dout_54_6:O dout_55_6:O dout_56_6:O dout_57_6:O dout_58_6:O
*.POWER VDD Vdd
*.POWER GND GND
*.POWER NSUB GND
*.POWER PSUB Vdd
xstage__1_50_6_50_6 din_50_6_50_6 stage__1_50_6_58_6_aB din_51_6_50_6 stage__1_50_6_58_6_aD stage__1_50_6_50_6_aY _0_0std_0_0cells_0_0AOI22X1
xstage__1_50_6_51_6 din_50_6_51_6 stage__1_50_6_58_6_aB din_51_6_51_6 stage__1_50_6_58_6_aD stage__1_50_6_51_6_aY _0_0std_0_0cells_0_0AOI22X1
xstage__1_50_6_52_6 din_50_6_52_6 stage__1_50_6_58_6_aB din_51_6_52_6 stage__1_50_6_58_6_aD stage__1_50_6_52_6_aY _0_0std_0_0cells_0_0AOI22X1
xstage__1_50_6_53_6 din_50_6_53_6 stage__1_50_6_58_6_aB din_51_6_53_6 stage__1_50_6_58_6_aD stage__1_50_6_53_6_aY _0_0std_0_0cells_0_0AOI22X1
xstage__1_50_6_54_6 din_50_6_54_6 stage__1_50_6_58_6_aB din_51_6_54_6 stage__1_50_6_58_6_aD stage__1_50_6_54_6_aY _0_0std_0_0cells_0_0AOI22X1
xstage__1_50_6_55_6 din_50_6_55_6 stage__1_50_6_58_6_aB din_51_6_55_6 stage__1_50_6_58_6_aD stage__1_50_6_55_6_aY _0_0std_0_0cells_0_0AOI22X1
xstage__1_50_6_56_6 din_50_6_56_6 stage__1_50_6_58_6_aB din_51_6_56_6 stage__1_50_6_58_6_aD stage__1_50_6_56_6_aY _0_0std_0_0cells_0_0AOI22X1
xstage__1_50_6_57_6 din_50_6_57_6 stage__1_50_6_58_6_aB din_51_6_57_6 stage__1_50_6_58_6_aD stage__1_50_6_57_6_aY _0_0std_0_0cells_0_0AOI22X1
xstage__1_50_6_58_6 din_50_6_58_6 stage__1_50_6_58_6_aB din_51_6_58_6 stage__1_50_6_58_6_aD stage__1_50_6_58_6_aY _0_0std_0_0cells_0_0AOI22X1
xfanout__tree_50_6 c_50_6 stage__1_50_6_58_6_aB _0_0std_0_0gates_0_0sigbuf_39_4
xfanout__tree_51_6 c_51_6 stage__1_50_6_58_6_aD _0_0std_0_0gates_0_0sigbuf_39_4
xstage__2_50_6 stage__1_50_6_50_6_aY dout_50_6 _0_0std_0_0gates_0_0andtree_31_7t_4
xstage__2_51_6 stage__1_50_6_51_6_aY dout_51_6 _0_0std_0_0gates_0_0andtree_31_7t_4
xstage__2_52_6 stage__1_50_6_52_6_aY dout_52_6 _0_0std_0_0gates_0_0andtree_31_7t_4
xstage__2_53_6 stage__1_50_6_53_6_aY dout_53_6 _0_0std_0_0gates_0_0andtree_31_7t_4
xstage__2_54_6 stage__1_50_6_54_6_aY dout_54_6 _0_0std_0_0gates_0_0andtree_31_7t_4
xstage__2_55_6 stage__1_50_6_55_6_aY dout_55_6 _0_0std_0_0gates_0_0andtree_31_7t_4
xstage__2_56_6 stage__1_50_6_56_6_aY dout_56_6 _0_0std_0_0gates_0_0andtree_31_7t_4
xstage__2_57_6 stage__1_50_6_57_6_aY dout_57_6 _0_0std_0_0gates_0_0andtree_31_7t_4
xstage__2_58_6 stage__1_50_6_58_6_aY dout_58_6 _0_0std_0_0gates_0_0andtree_31_7t_4
.ends
*---- end of process: merge_mux_ohc_opt<2,9> -----
*
*---- act defproc: std::cells::LATCH<> -----
* raw ports:  CLK D Q
*
.subckt _0_0std_0_0cells_0_0LATCH CLK D Q
*.PININFO CLK:I D:I Q:O
*.POWER VDD Vdd
*.POWER GND GND
*.POWER NSUB GND
*.POWER PSUB Vdd
*
* --- node flags ---
*
* __clk (combinational)
* __q (combinational)
* Q (combinational)
*
* --- end node flags ---
*
xM0_ Vdd CLK __clk Vdd sky130_fd_pr__pfet_01v8  W=1.125 L=0.15 nrs=1 nrd=1 nf=1
xM1_ Vdd D #7 Vdd sky130_fd_pr__pfet_01v8  W=1.5 L=0.15 nrs=1 nrd=1 nf=1
xM2_ Vdd Q #8 Vdd sky130_fd_pr__pfet_01v8  W=0.75 L=0.15 nrs=1 nrd=1 nf=1
xM3_ Vdd __q Q Vdd sky130_fd_pr__pfet_01v8  W=1.125 L=0.15 nrs=1 nrd=1 nf=1
xM4_ GND CLK __clk GND sky130_fd_pr__nfet_01v8 W=0.75 L=0.15 nrs=1 nrd=1 nf=1
xM5_ GND D #5 GND sky130_fd_pr__nfet_01v8 W=0.75 L=0.15 nrs=1 nrd=1 nf=1
xM6_ GND Q #10 GND sky130_fd_pr__nfet_01v8 W=0.75 L=0.15 nrs=1 nrd=1 nf=1
xM7_ GND __q Q GND sky130_fd_pr__nfet_01v8 W=0.75 L=0.15 nrs=1 nrd=1 nf=1
xM8_ #5 CLK __q GND sky130_fd_pr__nfet_01v8 W=0.75 L=0.15 nrs=1 nrd=1 nf=1
xM9_ #7 __clk __q Vdd sky130_fd_pr__pfet_01v8  W=1.5 L=0.15 nrs=1 nrd=1 nf=1
xM10_ #8 CLK __q Vdd sky130_fd_pr__pfet_01v8  W=0.75 L=0.15 nrs=1 nrd=1 nf=1
xM11_ #10 __clk __q GND sky130_fd_pr__nfet_01v8 W=0.75 L=0.15 nrs=1 nrd=1 nf=1
.ends
*---- end of process: LATCH<> -----
*
*---- act defproc: std::cells::OR2X1<> -----
* raw ports:  A B Y
*
.subckt _0_0std_0_0cells_0_0OR2X1 A B Y
*.PININFO A:I B:I Y:O
*.POWER VDD Vdd
*.POWER GND GND
*.POWER NSUB GND
*.POWER PSUB Vdd
*
* --- node flags ---
*
* __Y (combinational)
* Y (combinational)
*
* --- end node flags ---
*
xM0_ Vdd A #5 Vdd sky130_fd_pr__pfet_01v8  W=1.125 L=0.15 nrs=1 nrd=1 nf=1
xM1_ Vdd __Y Y Vdd sky130_fd_pr__pfet_01v8  W=0.6 L=0.15 nrs=1 nrd=1 nf=1
xM2_ GND A __Y GND sky130_fd_pr__nfet_01v8 W=0.45 L=0.15 nrs=1 nrd=1 nf=1
xM3_ GND B __Y GND sky130_fd_pr__nfet_01v8 W=0.45 L=0.15 nrs=1 nrd=1 nf=1
xM4_ GND __Y Y GND sky130_fd_pr__nfet_01v8 W=0.45 L=0.15 nrs=1 nrd=1 nf=1
xM5_ #5 B __Y Vdd sky130_fd_pr__pfet_01v8  W=1.125 L=0.15 nrs=1 nrd=1 nf=1
.ends
*---- end of process: OR2X1<> -----
*
*---- act defproc: syn::ring::delay_line_1<7> -----
* raw ports:  in out
*
.subckt _0_0syn_0_0ring_0_0delay__line__1_37_4 in out
*.PININFO in:I out:O
*.POWER VDD Vdd
*.POWER GND GND
*.POWER NSUB GND
*.POWER PSUB Vdd
xinvs_50_6 in invs_50_6_aY _0_0std_0_0cells_0_0INVX1
xinvs_51_6 invs_50_6_aY invs_51_6_aY _0_0std_0_0cells_0_0INVX1
xinvs_52_6 invs_51_6_aY invs_52_6_aY _0_0std_0_0cells_0_0INVX1
xinvs_53_6 invs_52_6_aY invs_53_6_aY _0_0std_0_0cells_0_0INVX1
xinvs_54_6 invs_53_6_aY invs_54_6_aY _0_0std_0_0cells_0_0INVX1
xinvs_55_6 invs_54_6_aY invs_55_6_aY _0_0std_0_0cells_0_0INVX1
xinvs_56_6 invs_55_6_aY invs_56_6_aY _0_0std_0_0cells_0_0INVX1
xinvs_57_6 invs_56_6_aY invs_57_6_aY _0_0std_0_0cells_0_0INVX1
xinvs_58_6 invs_57_6_aY invs_58_6_aY _0_0std_0_0cells_0_0INVX1
xinvs_59_6 invs_58_6_aY invs_59_6_aY _0_0std_0_0cells_0_0INVX1
xinvs_510_6 invs_59_6_aY invs_510_6_aY _0_0std_0_0cells_0_0INVX1
xinvs_511_6 invs_510_6_aY invs_511_6_aY _0_0std_0_0cells_0_0INVX1
xinvs_512_6 invs_511_6_aY invs_512_6_aY _0_0std_0_0cells_0_0INVX1
xinvs_513_6 invs_512_6_aY out _0_0std_0_0cells_0_0INVX1
.ends
*---- end of process: delay_line_1<7> -----
*
*---- act defproc: syn::ring::delay_selector<1,7> -----
* raw ports:  in out
*
.subckt _0_0syn_0_0ring_0_0delay__selector_31_77_4 in out
*.PININFO in:I out:O
*.POWER VDD Vdd
*.POWER GND GND
*.POWER NSUB GND
*.POWER PSUB Vdd
xd1 in out _0_0syn_0_0ring_0_0delay__line__1_37_4
.ends
*---- end of process: delay_selector<1,7> -----
*
*---- act defproc: syn::ring::delay_line<7> -----
* raw ports:  in out
*
.subckt _0_0syn_0_0ring_0_0delay__line_37_4 in out
*.PININFO in:I out:O
*.POWER VDD Vdd
*.POWER GND GND
*.POWER NSUB GND
*.POWER PSUB Vdd
xdl in out _0_0syn_0_0ring_0_0delay__selector_31_77_4
.ends
*---- end of process: delay_line<7> -----
*
*---- act defproc: cell::gcelem2x0<> -----
* raw ports:  in[0] in[1] out
*
.subckt _0_0cell_0_0gcelem2x0 in_50_6 in_51_6 out
*.PININFO in_50_6:I in_51_6:I out:O
*.POWER VDD Vdd
*.POWER GND GND
*.POWER NSUB GND
*.POWER PSUB Vdd
*
* --- node flags ---
*
* out (state-holding): pup_reff=0.333333; pdn_reff=0.4
*
* --- end node flags ---
*
xM0_ Vdd in_50_6 #6 Vdd sky130_fd_pr__pfet_01v8  W=0.9 L=0.15 nrs=1 nrd=1 nf=1
xM1_ Vdd out #fb7# Vdd sky130_fd_pr__pfet_01v8  W=0.75 L=0.3 nrs=1 nrd=1 nf=1
xM2_keeper Vdd GND #8 Vdd sky130_fd_pr__pfet_01v8  W=0.45 L=1.05 nrs=1 nrd=1 nf=1
xM3_ GND in_50_6 #3 GND sky130_fd_pr__nfet_01v8 W=0.75 L=0.15 nrs=1 nrd=1 nf=1
xM4_ GND out #fb7# GND sky130_fd_pr__nfet_01v8 W=0.45 L=0.3 nrs=1 nrd=1 nf=1
xM5_keeper GND Vdd #9 GND sky130_fd_pr__nfet_01v8 W=0.45 L=2.1 nrs=1 nrd=1 nf=1
xM6_ #3 in_51_6 out GND sky130_fd_pr__nfet_01v8 W=0.75 L=0.15 nrs=1 nrd=1 nf=1
xM7_ #6 in_51_6 out Vdd sky130_fd_pr__pfet_01v8  W=0.9 L=0.15 nrs=1 nrd=1 nf=1
xM8_keeper #8 #fb7# out Vdd sky130_fd_pr__pfet_01v8  W=0.45 L=0.15 nrs=1 nrd=1 nf=1
xM9_keeper #9 #fb7# out GND sky130_fd_pr__nfet_01v8 W=0.45 L=0.15 nrs=1 nrd=1 nf=1
.ends
*---- end of process: gcelem2x0<> -----
*
*---- act defproc: std::gates::ctree<2,f> -----
* raw ports:  in[0] in[1] out
*
.subckt _0_0std_0_0gates_0_0ctree_32_7f_4 in_50_6 in_51_6 out
*.PININFO in_50_6:I in_51_6:I out:O
*.POWER VDD Vdd
*.POWER GND GND
*.POWER NSUB GND
*.POWER PSUB Vdd
xcx0 in_50_6 in_51_6 cx0_aout _0_0cell_0_0gcelem2x0
xcx1 cx0_aout out _0_0cell_0_0ginvx3
.ends
*---- end of process: ctree<2,f> -----
*
*---- act defproc: syn::ring::delay_line_1<6> -----
* raw ports:  in out
*
.subckt _0_0syn_0_0ring_0_0delay__line__1_36_4 in out
*.PININFO in:I out:O
*.POWER VDD Vdd
*.POWER GND GND
*.POWER NSUB GND
*.POWER PSUB Vdd
xinvs_50_6 in invs_50_6_aY _0_0std_0_0cells_0_0INVX1
xinvs_51_6 invs_50_6_aY invs_51_6_aY _0_0std_0_0cells_0_0INVX1
xinvs_52_6 invs_51_6_aY invs_52_6_aY _0_0std_0_0cells_0_0INVX1
xinvs_53_6 invs_52_6_aY invs_53_6_aY _0_0std_0_0cells_0_0INVX1
xinvs_54_6 invs_53_6_aY invs_54_6_aY _0_0std_0_0cells_0_0INVX1
xinvs_55_6 invs_54_6_aY invs_55_6_aY _0_0std_0_0cells_0_0INVX1
xinvs_56_6 invs_55_6_aY invs_56_6_aY _0_0std_0_0cells_0_0INVX1
xinvs_57_6 invs_56_6_aY invs_57_6_aY _0_0std_0_0cells_0_0INVX1
xinvs_58_6 invs_57_6_aY invs_58_6_aY _0_0std_0_0cells_0_0INVX1
xinvs_59_6 invs_58_6_aY invs_59_6_aY _0_0std_0_0cells_0_0INVX1
xinvs_510_6 invs_59_6_aY invs_510_6_aY _0_0std_0_0cells_0_0INVX1
xinvs_511_6 invs_510_6_aY out _0_0std_0_0cells_0_0INVX1
.ends
*---- end of process: delay_line_1<6> -----
*
*---- act defproc: syn::ring::delay_selector<1,6> -----
* raw ports:  in out
*
.subckt _0_0syn_0_0ring_0_0delay__selector_31_76_4 in out
*.PININFO in:I out:O
*.POWER VDD Vdd
*.POWER GND GND
*.POWER NSUB GND
*.POWER PSUB Vdd
xd1 in out _0_0syn_0_0ring_0_0delay__line__1_36_4
.ends
*---- end of process: delay_selector<1,6> -----
*
*---- act defproc: syn::ring::delay_line<6> -----
* raw ports:  in out
*
.subckt _0_0syn_0_0ring_0_0delay__line_36_4 in out
*.PININFO in:I out:O
*.POWER VDD Vdd
*.POWER GND GND
*.POWER NSUB GND
*.POWER PSUB Vdd
xdl in out _0_0syn_0_0ring_0_0delay__selector_31_76_4
.ends
*---- end of process: delay_line<6> -----
*
*---- act defproc: std::cells::AND2X1<> -----
* raw ports:  A B Y
*
.subckt _0_0std_0_0cells_0_0AND2X1 A B Y
*.PININFO A:I B:I Y:O
*.POWER VDD Vdd
*.POWER GND GND
*.POWER NSUB GND
*.POWER PSUB Vdd
*
* --- node flags ---
*
* __Y (combinational)
* Y (combinational)
*
* --- end node flags ---
*
xM0_ Vdd A __Y Vdd sky130_fd_pr__pfet_01v8  W=0.6 L=0.15 nrs=1 nrd=1 nf=1
xM1_ Vdd B __Y Vdd sky130_fd_pr__pfet_01v8  W=0.6 L=0.15 nrs=1 nrd=1 nf=1
xM2_ Vdd __Y Y Vdd sky130_fd_pr__pfet_01v8  W=0.6 L=0.15 nrs=1 nrd=1 nf=1
xM3_ GND A #3 GND sky130_fd_pr__nfet_01v8 W=0.75 L=0.15 nrs=1 nrd=1 nf=1
xM4_ GND __Y Y GND sky130_fd_pr__nfet_01v8 W=0.45 L=0.15 nrs=1 nrd=1 nf=1
xM5_ #3 B __Y GND sky130_fd_pr__nfet_01v8 W=0.75 L=0.15 nrs=1 nrd=1 nf=1
.ends
*---- end of process: AND2X1<> -----
*
*---- act defproc: syn::ring::ff_control<6> -----
* raw ports:  go.d.d[0] go.a clk1 clk2
*
.subckt _0_0syn_0_0ring_0_0ff__control_36_4 go_ad_ad_50_6 go_aa clk1 clk2
*.PININFO go_ad_ad_50_6:I go_aa:O clk1:O clk2:O
*.POWER VDD Vdd
*.POWER GND GND
*.POWER NSUB GND
*.POWER PSUB Vdd
xor1 go_ad_ad_50_6 or1_aB or1_aY _0_0std_0_0cells_0_0OR2X1
xinv__clk or1_aY clk1 _0_0std_0_0cells_0_0INVX1
xcapture__delay__1 or1_aY and1_aB _0_0syn_0_0ring_0_0delay__line_37_4
xc2 or1_aB and1_aB go_aa _0_0std_0_0gates_0_0ctree_32_7f_4
xcapture__delay__2 clk2 or1_aB _0_0syn_0_0ring_0_0delay__line_36_4
xand1 go_ad_ad_50_6 and1_aB clk2 _0_0std_0_0cells_0_0AND2X1
.ends
*---- end of process: ff_control<6> -----
*
*---- act defproc: syn::ring::capture<6,6,9> -----
* raw ports:  go.d.d[0] go.a din[0] din[1] din[2] din[3] din[4] din[5] din[6] din[7] din[8] dout[0] dout[1] dout[2] dout[3] dout[4] dout[5] dout[6] dout[7] dout[8]
*
.subckt _0_0syn_0_0ring_0_0capture_36_76_79_4 go_ad_ad_50_6 go_aa din_50_6 din_51_6 din_52_6 din_53_6 din_54_6 din_55_6 din_56_6 din_57_6 din_58_6 dout_50_6 dout_51_6 dout_52_6 dout_53_6 dout_54_6 dout_55_6 dout_56_6 dout_57_6 dout_58_6
*.PININFO go_ad_ad_50_6:I go_aa:O din_50_6:I din_51_6:I din_52_6:I din_53_6:I din_54_6:I din_55_6:I din_56_6:I din_57_6:I din_58_6:I dout_50_6:O dout_51_6:O dout_52_6:O dout_53_6:O dout_54_6:O dout_55_6:O dout_56_6:O dout_57_6:O dout_58_6:O
*.POWER VDD Vdd
*.POWER GND GND
*.POWER NSUB GND
*.POWER PSUB Vdd
xfanout__tree__2 ff__ctrl_aclk2 x2_58_6_aCLK _0_0std_0_0gates_0_0sigbuf_39_4
xx2_50_6 x2_58_6_aCLK dmid_50_6 dout_50_6 _0_0std_0_0cells_0_0LATCH
xx2_51_6 x2_58_6_aCLK dmid_51_6 dout_51_6 _0_0std_0_0cells_0_0LATCH
xx2_52_6 x2_58_6_aCLK dmid_52_6 dout_52_6 _0_0std_0_0cells_0_0LATCH
xx2_53_6 x2_58_6_aCLK dmid_53_6 dout_53_6 _0_0std_0_0cells_0_0LATCH
xx2_54_6 x2_58_6_aCLK dmid_54_6 dout_54_6 _0_0std_0_0cells_0_0LATCH
xx2_55_6 x2_58_6_aCLK dmid_55_6 dout_55_6 _0_0std_0_0cells_0_0LATCH
xx2_56_6 x2_58_6_aCLK dmid_56_6 dout_56_6 _0_0std_0_0cells_0_0LATCH
xx2_57_6 x2_58_6_aCLK dmid_57_6 dout_57_6 _0_0std_0_0cells_0_0LATCH
xx2_58_6 x2_58_6_aCLK dmid_58_6 dout_58_6 _0_0std_0_0cells_0_0LATCH
xx1_50_6 x1_58_6_aCLK din_50_6 dmid_50_6 _0_0std_0_0cells_0_0LATCH
xx1_51_6 x1_58_6_aCLK din_51_6 dmid_51_6 _0_0std_0_0cells_0_0LATCH
xx1_52_6 x1_58_6_aCLK din_52_6 dmid_52_6 _0_0std_0_0cells_0_0LATCH
xx1_53_6 x1_58_6_aCLK din_53_6 dmid_53_6 _0_0std_0_0cells_0_0LATCH
xx1_54_6 x1_58_6_aCLK din_54_6 dmid_54_6 _0_0std_0_0cells_0_0LATCH
xx1_55_6 x1_58_6_aCLK din_55_6 dmid_55_6 _0_0std_0_0cells_0_0LATCH
xx1_56_6 x1_58_6_aCLK din_56_6 dmid_56_6 _0_0std_0_0cells_0_0LATCH
xx1_57_6 x1_58_6_aCLK din_57_6 dmid_57_6 _0_0std_0_0cells_0_0LATCH
xx1_58_6 x1_58_6_aCLK din_58_6 dmid_58_6 _0_0std_0_0cells_0_0LATCH
xfanout__tree__1 ff__ctrl_aclk1 x1_58_6_aCLK _0_0std_0_0gates_0_0sigbuf_39_4
xff__ctrl go_ad_ad_50_6 go_aa ff__ctrl_aclk1 ff__ctrl_aclk2 _0_0syn_0_0ring_0_0ff__control_36_4
.ends
*---- end of process: capture<6,6,9> -----
*
*---- act defproc: syn::ring::connect_outchan_to_ctrl<9> -----
* raw ports: 
*
* empty subckt
*.POWER VDD Vdd
*.POWER GND GND
*.POWER NSUB GND
*.POWER PSUB Vdd
* end empty subckt
*---- end of process: connect_outchan_to_ctrl<9> -----
*
*---- act defproc: cell::gnor2x0<> -----
* raw ports:  in[0] in[1] out
*
.subckt _0_0cell_0_0gnor2x0 in_50_6 in_51_6 out
*.PININFO in_50_6:I in_51_6:I out:O
*.POWER VDD Vdd
*.POWER GND GND
*.POWER NSUB GND
*.POWER PSUB Vdd
*
* --- node flags ---
*
* out (combinational)
*
* --- end node flags ---
*
xM0_ Vdd in_50_6 #5 Vdd sky130_fd_pr__pfet_01v8  W=0.9 L=0.15 nrs=1 nrd=1 nf=1
xM1_ GND in_50_6 out GND sky130_fd_pr__nfet_01v8 W=0.45 L=0.15 nrs=1 nrd=1 nf=1
xM2_ GND in_51_6 out GND sky130_fd_pr__nfet_01v8 W=0.45 L=0.15 nrs=1 nrd=1 nf=1
xM3_ #5 in_51_6 out Vdd sky130_fd_pr__pfet_01v8  W=0.9 L=0.15 nrs=1 nrd=1 nf=1
.ends
*---- end of process: gnor2x0<> -----
*
*---- act defproc: std::gates::ortree<2,f> -----
* raw ports:  in[0] in[1] out
*
.subckt _0_0std_0_0gates_0_0ortree_32_7f_4 in_50_6 in_51_6 out
*.PININFO in_50_6:I in_51_6:I out:O
*.POWER VDD Vdd
*.POWER GND GND
*.POWER NSUB GND
*.POWER PSUB Vdd
xcx0 in_50_6 in_51_6 cx0_aout _0_0cell_0_0gnor2x0
xcx1 cx0_aout out _0_0cell_0_0ginvx3
.ends
*---- end of process: ortree<2,f> -----
*
*---- act defproc: std::cells::NOR2X2<> -----
* raw ports:  A B Y
*
.subckt _0_0std_0_0cells_0_0NOR2X2 A B Y
*.PININFO A:I B:I Y:O
*.POWER VDD Vdd
*.POWER GND GND
*.POWER NSUB GND
*.POWER PSUB Vdd
*
* --- node flags ---
*
* Y (combinational)
*
* --- end node flags ---
*
xM0_ Vdd A #5 Vdd sky130_fd_pr__pfet_01v8  W=2.25 L=0.15 nrs=1 nrd=1 nf=1
xM1_ GND A Y GND sky130_fd_pr__nfet_01v8 W=0.75 L=0.15 nrs=1 nrd=1 nf=1
xM2_ GND B Y GND sky130_fd_pr__nfet_01v8 W=0.75 L=0.15 nrs=1 nrd=1 nf=1
xM3_ #5 B Y Vdd sky130_fd_pr__pfet_01v8  W=2.25 L=0.15 nrs=1 nrd=1 nf=1
.ends
*---- end of process: NOR2X2<> -----
*
*---- act defproc: std::cells::LATCHINV<> -----
* raw ports:  CLK D q _q
*
.subckt _0_0std_0_0cells_0_0LATCHINV CLK D q __q
*.PININFO CLK:I D:I q:I __q:O
*.POWER VDD Vdd
*.POWER GND GND
*.POWER NSUB GND
*.POWER PSUB Vdd
*
* --- node flags ---
*
* __clk (combinational)
* __q (combinational)
*
* --- end node flags ---
*
xM0_ Vdd CLK __clk Vdd sky130_fd_pr__pfet_01v8  W=1.125 L=0.15 nrs=1 nrd=1 nf=1
xM1_ Vdd D #7 Vdd sky130_fd_pr__pfet_01v8  W=1.5 L=0.15 nrs=1 nrd=1 nf=1
xM2_ Vdd q #8 Vdd sky130_fd_pr__pfet_01v8  W=0.75 L=0.15 nrs=1 nrd=1 nf=1
xM3_ GND CLK __clk GND sky130_fd_pr__nfet_01v8 W=0.75 L=0.15 nrs=1 nrd=1 nf=1
xM4_ GND D #5 GND sky130_fd_pr__nfet_01v8 W=0.75 L=0.15 nrs=1 nrd=1 nf=1
xM5_ GND q #10 GND sky130_fd_pr__nfet_01v8 W=0.75 L=0.15 nrs=1 nrd=1 nf=1
xM6_ #5 CLK __q GND sky130_fd_pr__nfet_01v8 W=0.75 L=0.15 nrs=1 nrd=1 nf=1
xM7_ #7 __clk __q Vdd sky130_fd_pr__pfet_01v8  W=1.5 L=0.15 nrs=1 nrd=1 nf=1
xM8_ #8 CLK __q Vdd sky130_fd_pr__pfet_01v8  W=0.75 L=0.15 nrs=1 nrd=1 nf=1
xM9_ #10 __clk __q GND sky130_fd_pr__nfet_01v8 W=0.75 L=0.15 nrs=1 nrd=1 nf=1
.ends
*---- end of process: LATCHINV<> -----
*
*---- act defproc: std::cells::LATCHLO<> -----
* raw ports:  R CLK D Q
*
.subckt _0_0std_0_0cells_0_0LATCHLO R CLK D Q
*.PININFO R:I CLK:I D:I Q:O
*.POWER VDD Vdd
*.POWER GND GND
*.POWER NSUB GND
*.POWER PSUB Vdd
xnx __q R Q _0_0std_0_0cells_0_0NOR2X2
xl CLK D Q __q _0_0std_0_0cells_0_0LATCHINV
.ends
*---- end of process: LATCHLO<> -----
*
*---- act defproc: cell::ginvx4<> -----
* raw ports:  in[0] out
*
.subckt _0_0cell_0_0ginvx4 in_50_6 out
*.PININFO in_50_6:I out:O