* NGSPICE file created from BiasBranchnMasterx11.ext - technology: sky130B

.subckt BiasCoarseSel8to1 CoarseOneHot[0] CoarseOneHot[1] CoarseOneHot[2] CoarseOneHot[3]
+ CoarseOneHot[4] CoarseOneHot[5] CoarseOneHot[6] CoarseOneHot[7] VddA18 BiasCB[0]
+ BiasCB[1] BiasCB[2] BiasCB[3] BiasCB[4] BiasCB[5] BiasCB[6] BiasCB[7] GndA CoarseBias
+ CoarseOneHotLowBiasEn
X0 a_6277_1990# BiasCB[2] a_6277_948# GndA sky130_fd_pr__nfet_01v8_lvt ad=0.5247 pd=4.49 as=0.2079 ps=2.19 w=1.98 l=5
X1 a_9647_1988# a_9303_n8# a_9899_n61# GndA sky130_fd_pr__nfet_01v8_lvt ad=0.2597 pd=2.49 as=0.2597 ps=2.49 w=0.98 l=9.98
X2 a_10655_1988# a_9303_n8# a_10907_n61# GndA sky130_fd_pr__nfet_01v8_lvt ad=0.2597 pd=2.49 as=0.2597 ps=2.49 w=0.98 l=9.98
X3 a_3112_2440# CoarseOneHot[1] a_2531_1983# GndA sky130_fd_pr__nfet_01v8 ad=0.14 pd=1.28 as=0.265 ps=2.53 w=1 l=1
X4 VddA18 CoarseOneHot[0] a_1025_2440# VddA18 sky130_fd_pr__pfet_01v8 ad=0.14575 pd=1.63 as=0.14575 ps=1.63 w=0.55 l=0.15
X5 a_9303_n8# CoarseOneHot[6] BiasCB[6] GndA sky130_fd_pr__nfet_01v8 ad=0.265 pd=2.53 as=0.265 ps=2.53 w=1 l=1
X6 a_2531_1983# BiasCB[1] GndA GndA sky130_fd_pr__nfet_01v8_lvt ad=0.2597 pd=2.49 as=0.2597 ps=2.49 w=0.98 l=9.98
X7 a_6145_2440# CoarseOneHot[2] a_6277_1990# GndA sky130_fd_pr__nfet_01v8 ad=0.14 pd=1.28 as=0.265 ps=2.53 w=1 l=1
X8 a_7760_1990# BiasCB[3] a_8008_n59# GndA sky130_fd_pr__nfet_01v8_lvt ad=0.2597 pd=2.49 as=0.2597 ps=2.49 w=0.98 l=9.98
X9 a_7256_1990# BiasCB[3] a_7508_n59# GndA sky130_fd_pr__nfet_01v8_lvt ad=0.2597 pd=2.49 as=0.2597 ps=2.49 w=0.98 l=9.98
X10 a_10151_1988# a_9303_n8# a_9899_n61# GndA sky130_fd_pr__nfet_01v8_lvt ad=0.2597 pd=2.49 as=0.2597 ps=2.49 w=0.98 l=9.98
X11 VddA18 CoarseOneHot[3] a_8582_2440# VddA18 sky130_fd_pr__pfet_01v8 ad=0.14575 pd=1.63 as=0.14575 ps=1.63 w=0.55 l=0.15
X12 a_8260_1990# BiasCB[3] a_8512_n59# GndA sky130_fd_pr__nfet_01v8_lvt ad=0.2597 pd=2.49 as=0.2597 ps=2.49 w=0.98 l=9.98
X13 a_8582_2440# CoarseOneHot[3] a_8764_1990# GndA sky130_fd_pr__nfet_01v8 ad=0.14 pd=1.28 as=0.265 ps=2.53 w=1 l=1
X14 a_5373_1990# BiasCB[2] a_5373_948# GndA sky130_fd_pr__nfet_01v8_lvt ad=0.5247 pd=4.49 as=0.2079 ps=2.19 w=1.98 l=5
X15 a_6277_948# BiasCB[2] a_5825_n105# GndA sky130_fd_pr__nfet_01v8_lvt ad=0.2079 pd=2.19 as=0.5247 ps=4.49 w=1.98 l=5
X16 a_2531_1983# BiasCB[1] GndA GndA sky130_fd_pr__nfet_01v8_lvt ad=0.2597 pd=2.49 as=0.2597 ps=2.49 w=0.98 l=9.98
X17 a_2531_1983# BiasCB[1] GndA GndA sky130_fd_pr__nfet_01v8_lvt ad=0.2597 pd=2.49 as=0.2597 ps=2.49 w=0.98 l=9.98
X18 a_9303_n8# CoarseOneHot[4] BiasCB[4] GndA sky130_fd_pr__nfet_01v8 ad=0.265 pd=2.53 as=0.265 ps=2.53 w=1 l=1
X19 a_5373_1990# BiasCB[2] a_5825_948# GndA sky130_fd_pr__nfet_01v8_lvt ad=0.5247 pd=4.49 as=0.2079 ps=2.19 w=1.98 l=5
X20 CoarseBias CoarseOneHotLowBiasEn a_11121_2355# GndA sky130_fd_pr__nfet_01v8 ad=0.265 pd=2.53 as=0.265 ps=2.53 w=1 l=1
X21 GndA a_9303_n8# a_9395_n61# GndA sky130_fd_pr__nfet_01v8_lvt ad=0.2597 pd=2.49 as=0.2597 ps=2.49 w=0.98 l=9.98
X22 a_10151_1988# a_9303_n8# a_10403_n61# GndA sky130_fd_pr__nfet_01v8_lvt ad=0.2597 pd=2.49 as=0.2597 ps=2.49 w=0.98 l=9.98
X23 a_9303_n8# CoarseOneHot[7] BiasCB[7] GndA sky130_fd_pr__nfet_01v8 ad=0.265 pd=2.53 as=0.265 ps=2.53 w=1 l=1
X24 a_2531_1983# BiasCB[1] GndA GndA sky130_fd_pr__nfet_01v8_lvt ad=0.2597 pd=2.49 as=0.2597 ps=2.49 w=0.98 l=9.98
X25 a_2531_1983# BiasCB[1] GndA GndA sky130_fd_pr__nfet_01v8_lvt ad=0.2597 pd=2.49 as=0.2597 ps=2.49 w=0.98 l=9.98
X26 a_5373_948# BiasCB[2] a_4921_n105# GndA sky130_fd_pr__nfet_01v8_lvt ad=0.2079 pd=2.19 as=0.5247 ps=4.49 w=1.98 l=5
X27 GndA BiasCB[3] a_7004_n59# GndA sky130_fd_pr__nfet_01v8_lvt ad=0.2597 pd=2.49 as=0.2597 ps=2.49 w=0.98 l=9.98
X28 a_8764_1990# BiasCB[3] a_8512_n59# GndA sky130_fd_pr__nfet_01v8_lvt ad=0.2597 pd=2.49 as=0.2597 ps=2.49 w=0.98 l=9.98
X29 CoarseBias CoarseOneHot[0] a_1025_2440# GndA sky130_fd_pr__nfet_01v8 ad=0.265 pd=2.53 as=0.265 ps=2.53 w=1 l=0.15
X30 a_1100_2174# BiasCB[0] GndA GndA sky130_fd_pr__nfet_01v8_lvt ad=0.252 pd=2.08 as=0.477 ps=4.13 w=1.8 l=5
X31 a_1100_2174# BiasCB[0] GndA GndA sky130_fd_pr__nfet_01v8_lvt ad=0.252 pd=2.08 as=0.477 ps=4.13 w=1.8 l=5
X32 a_11121_2355# a_9303_n8# a_10907_n61# GndA sky130_fd_pr__nfet_01v8_lvt ad=0.2597 pd=2.49 as=0.2597 ps=2.49 w=0.98 l=9.98
X33 GndA BiasCB[2] a_4921_948# GndA sky130_fd_pr__nfet_01v8_lvt ad=0.5247 pd=4.49 as=0.2079 ps=2.19 w=1.98 l=5
X34 CoarseBias CoarseOneHot[1] a_3112_2440# GndA sky130_fd_pr__nfet_01v8 ad=0.265 pd=2.53 as=0.14 ps=1.28 w=1 l=1
X35 a_5825_948# BiasCB[2] a_5825_n105# GndA sky130_fd_pr__nfet_01v8_lvt ad=0.2079 pd=2.19 as=0.5247 ps=4.49 w=1.98 l=5
X36 VddA18 CoarseOneHot[1] a_3112_2440# VddA18 sky130_fd_pr__pfet_01v8 ad=0.14575 pd=1.63 as=0.14575 ps=1.63 w=0.55 l=0.15
X37 a_9647_1988# a_9303_n8# a_9395_n61# GndA sky130_fd_pr__nfet_01v8_lvt ad=0.2597 pd=2.49 as=0.2597 ps=2.49 w=0.98 l=9.98
X38 CoarseBias CoarseOneHot[2] a_6145_2440# GndA sky130_fd_pr__nfet_01v8 ad=0.265 pd=2.53 as=0.14 ps=1.28 w=1 l=1
X39 a_1100_2174# BiasCB[0] GndA GndA sky130_fd_pr__nfet_01v8_lvt ad=0.252 pd=2.08 as=0.477 ps=4.13 w=1.8 l=5
X40 a_1100_2174# BiasCB[0] GndA GndA sky130_fd_pr__nfet_01v8_lvt ad=0.252 pd=2.08 as=0.477 ps=4.13 w=1.8 l=5
X41 GndA BiasCB[0] a_1100_2174# GndA sky130_fd_pr__nfet_01v8_lvt ad=0.477 pd=4.13 as=0.252 ps=2.08 w=1.8 l=5
X42 a_10655_1988# a_9303_n8# a_10403_n61# GndA sky130_fd_pr__nfet_01v8_lvt ad=0.2597 pd=2.49 as=0.2597 ps=2.49 w=0.98 l=9.98
X43 VddA18 CoarseOneHot[2] a_6145_2440# VddA18 sky130_fd_pr__pfet_01v8 ad=0.14575 pd=1.63 as=0.14575 ps=1.63 w=0.55 l=0.15
X44 a_9303_n8# CoarseOneHot[5] BiasCB[5] GndA sky130_fd_pr__nfet_01v8 ad=0.265 pd=2.53 as=0.265 ps=2.53 w=1 l=1
X45 GndA BiasCB[0] a_1100_2174# GndA sky130_fd_pr__nfet_01v8_lvt ad=0.477 pd=4.13 as=0.252 ps=2.08 w=1.8 l=5
X46 a_2531_1983# BiasCB[1] GndA GndA sky130_fd_pr__nfet_01v8_lvt ad=0.2597 pd=2.49 as=0.2597 ps=2.49 w=0.98 l=9.98
X47 a_7256_1990# BiasCB[3] a_7004_n59# GndA sky130_fd_pr__nfet_01v8_lvt ad=0.2597 pd=2.49 as=0.2597 ps=2.49 w=0.98 l=9.98
X48 GndA BiasCB[0] a_1100_2174# GndA sky130_fd_pr__nfet_01v8_lvt ad=0.477 pd=4.13 as=0.252 ps=2.08 w=1.8 l=5
X49 a_2531_1983# BiasCB[1] GndA GndA sky130_fd_pr__nfet_01v8_lvt ad=0.2597 pd=2.49 as=0.2597 ps=2.49 w=0.98 l=9.98
X50 a_4921_948# BiasCB[2] a_4921_n105# GndA sky130_fd_pr__nfet_01v8_lvt ad=0.2079 pd=2.19 as=0.5247 ps=4.49 w=1.98 l=5
X51 CoarseBias CoarseOneHot[3] a_8582_2440# GndA sky130_fd_pr__nfet_01v8 ad=0.265 pd=2.53 as=0.14 ps=1.28 w=1 l=1
X52 a_1025_2440# CoarseOneHot[0] a_1100_2174# GndA sky130_fd_pr__nfet_01v8_lvt ad=0.265 pd=2.53 as=0.265 ps=2.53 w=1 l=0.15
X53 a_8260_1990# BiasCB[3] a_8008_n59# GndA sky130_fd_pr__nfet_01v8_lvt ad=0.2597 pd=2.49 as=0.2597 ps=2.49 w=0.98 l=9.98
X54 GndA BiasCB[0] a_1100_2174# GndA sky130_fd_pr__nfet_01v8_lvt ad=0.477 pd=4.13 as=0.252 ps=2.08 w=1.8 l=5
X55 a_2531_1983# BiasCB[1] GndA GndA sky130_fd_pr__nfet_01v8_lvt ad=0.2597 pd=2.49 as=0.2597 ps=2.49 w=0.98 l=9.98
X56 a_7760_1990# BiasCB[3] a_7508_n59# GndA sky130_fd_pr__nfet_01v8_lvt ad=0.2597 pd=2.49 as=0.2597 ps=2.49 w=0.98 l=9.98
.ends

.subckt BiasCoarseFineInterface IOut VddA18 IIn GndA nLowBiasEn LowBiasEn
X0 a_4866_1215# a_4774_815# VddA18 VddA18 sky130_fd_pr__pfet_01v8_lvt ad=0.56 pd=4.28 as=1.06 ps=8.53 w=4 l=2
X1 a_n8668_1590# LowBiasEn IOut VddA18 sky130_fd_pr__pfet_01v8_hvt ad=4.48 pd=32.28 as=4.48 ps=32.28 w=32 l=0.5
X2 VddA18 nLowBiasEn a_n8760_73# VddA18 sky130_fd_pr__pfet_01v8 ad=0.14575 pd=1.63 as=0.14575 ps=1.63 w=0.55 l=0.15
X3 a_n8668_1590# a_n8760_73# VddA18 VddA18 sky130_fd_pr__pfet_01v8 ad=4.48 pd=32.28 as=4.48 ps=32.28 w=32 l=0.5
X4 IOut LowBiasEn a_n8668_1590# VddA18 sky130_fd_pr__pfet_01v8_hvt ad=4.48 pd=32.28 as=4.48 ps=32.28 w=32 l=0.5
X5 a_n9486_n270# LowBiasEn a_n9123_n1309# VddA18 sky130_fd_pr__pfet_01v8_hvt ad=4.48 pd=32.28 as=4.48 ps=32.28 w=32 l=0.5
X6 VddA18 a_n8760_73# a_n8668_1590# VddA18 sky130_fd_pr__pfet_01v8 ad=4.48 pd=32.28 as=4.48 ps=32.28 w=32 l=0.5
X7 a_n8668_1590# a_n8760_73# VddA18 VddA18 sky130_fd_pr__pfet_01v8 ad=4.48 pd=32.28 as=4.48 ps=32.28 w=32 l=0.5
X8 a_4866_1215# a_4774_815# a_4774_815# VddA18 sky130_fd_pr__pfet_01v8_lvt ad=0.56 pd=4.28 as=0.56 ps=4.28 w=4 l=2
X9 VddA18 a_n8760_73# a_n8668_1590# VddA18 sky130_fd_pr__pfet_01v8 ad=4.48 pd=32.28 as=4.48 ps=32.28 w=32 l=0.5
X10 a_5726_1215# a_4774_815# a_5726_n150# VddA18 sky130_fd_pr__pfet_01v8_lvt ad=0.56 pd=4.28 as=0.56 ps=4.28 w=4 l=2
X11 VddA18 a_n8760_73# a_n9486_n270# VddA18 sky130_fd_pr__pfet_01v8 ad=4.48 pd=32.28 as=4.48 ps=32.28 w=32 l=0.5
X12 a_n9486_n270# a_n8760_73# VddA18 VddA18 sky130_fd_pr__pfet_01v8 ad=4.48 pd=32.28 as=4.48 ps=32.28 w=32 l=0.5
X13 a_n8668_1590# a_n8760_73# VddA18 VddA18 sky130_fd_pr__pfet_01v8 ad=4.48 pd=32.28 as=8.48 ps=64.53 w=32 l=0.5
X14 a_n9123_n1309# LowBiasEn a_n9486_n270# VddA18 sky130_fd_pr__pfet_01v8_hvt ad=4.48 pd=32.28 as=4.48 ps=32.28 w=32 l=0.5
X15 VddA18 a_n8760_73# a_n8668_1590# VddA18 sky130_fd_pr__pfet_01v8 ad=4.48 pd=32.28 as=4.48 ps=32.28 w=32 l=0.5
X16 a_5726_n150# a_4774_815# a_5726_1215# VddA18 sky130_fd_pr__pfet_01v8_lvt ad=1.06 pd=8.53 as=0.56 ps=4.28 w=4 l=2
X17 a_n9486_n270# a_n8760_73# VddA18 VddA18 sky130_fd_pr__pfet_01v8 ad=4.48 pd=32.28 as=4.48 ps=32.28 w=32 l=0.5
X18 a_n9486_n270# LowBiasEn a_n9123_n1309# VddA18 sky130_fd_pr__pfet_01v8_hvt ad=4.48 pd=32.28 as=4.48 ps=32.28 w=32 l=0.5
X19 VddA18 a_4774_815# a_4866_1215# VddA18 sky130_fd_pr__pfet_01v8_lvt ad=1.06 pd=8.53 as=0.56 ps=4.28 w=4 l=2
X20 a_n9123_n1309# LowBiasEn a_n9486_n270# VddA18 sky130_fd_pr__pfet_01v8_hvt ad=4.48 pd=32.28 as=4.48 ps=32.28 w=32 l=0.5
X21 a_5726_1215# a_4774_815# VddA18 VddA18 sky130_fd_pr__pfet_01v8_lvt ad=0.56 pd=4.28 as=1.06 ps=8.53 w=4 l=2
X22 a_n8668_1590# a_n8760_73# VddA18 VddA18 sky130_fd_pr__pfet_01v8 ad=4.48 pd=32.28 as=4.48 ps=32.28 w=32 l=0.5
X23 a_n9486_n270# a_n8760_73# VddA18 VddA18 sky130_fd_pr__pfet_01v8 ad=4.48 pd=32.28 as=4.48 ps=32.28 w=32 l=0.5
X24 a_n9486_n270# a_n8760_73# VddA18 VddA18 sky130_fd_pr__pfet_01v8 ad=4.48 pd=32.28 as=8.48 ps=64.53 w=32 l=0.5
X25 a_n9123_n1309# nLowBiasEn a_4774_815# VddA18 sky130_fd_pr__pfet_01v8_lvt ad=0.56 pd=4.28 as=1.06 ps=8.53 w=4 l=2
X26 a_n8668_1590# LowBiasEn GndA GndA sky130_fd_pr__nfet_01v8 ad=0.1113 pd=1.37 as=0.1113 ps=1.37 w=0.42 l=0.15
X27 VddA18 a_n8760_73# a_n8668_1590# VddA18 sky130_fd_pr__pfet_01v8 ad=4.48 pd=32.28 as=4.48 ps=32.28 w=32 l=0.5
X28 a_n8668_1590# a_n8760_73# VddA18 VddA18 sky130_fd_pr__pfet_01v8 ad=4.48 pd=32.28 as=4.48 ps=32.28 w=32 l=0.5
X29 VddA18 a_n8760_73# a_n9486_n270# VddA18 sky130_fd_pr__pfet_01v8 ad=8.48 pd=64.53 as=4.48 ps=32.28 w=32 l=0.5
X30 VddA18 a_n8760_73# a_n9486_n270# VddA18 sky130_fd_pr__pfet_01v8 ad=4.48 pd=32.28 as=4.48 ps=32.28 w=32 l=0.5
X31 VddA18 a_n8760_73# a_n9486_n270# VddA18 sky130_fd_pr__pfet_01v8 ad=4.48 pd=32.28 as=4.48 ps=32.28 w=32 l=0.5
X32 IOut nLowBiasEn a_5726_n150# VddA18 sky130_fd_pr__pfet_01v8_lvt ad=0.56 pd=4.28 as=1.06 ps=8.53 w=4 l=2
X33 a_n9123_n1309# LowBiasEn a_n9486_n270# VddA18 sky130_fd_pr__pfet_01v8_hvt ad=4.48 pd=32.28 as=8.48 ps=64.53 w=32 l=0.5
X34 a_n8760_73# LowBiasEn a_n9486_n270# VddA18 sky130_fd_pr__pfet_01v8 ad=0.14575 pd=1.63 as=0.14575 ps=1.63 w=0.55 l=0.5
X35 a_n9486_n270# LowBiasEn a_n9123_n1309# VddA18 sky130_fd_pr__pfet_01v8_hvt ad=4.48 pd=32.28 as=4.48 ps=32.28 w=32 l=0.5
X36 IOut LowBiasEn a_n8668_1590# VddA18 sky130_fd_pr__pfet_01v8_hvt ad=4.48 pd=32.28 as=4.48 ps=32.28 w=32 l=0.5
X37 IOut LowBiasEn a_n8668_1590# VddA18 sky130_fd_pr__pfet_01v8_hvt ad=4.48 pd=32.28 as=4.48 ps=32.28 w=32 l=0.5
X38 VddA18 a_n8760_73# a_n8668_1590# VddA18 sky130_fd_pr__pfet_01v8 ad=8.48 pd=64.53 as=4.48 ps=32.28 w=32 l=0.5
X39 a_n8668_1590# LowBiasEn IOut VddA18 sky130_fd_pr__pfet_01v8_hvt ad=8.48 pd=64.53 as=4.48 ps=32.28 w=32 l=0.5
X40 a_n9486_n270# LowBiasEn GndA GndA sky130_fd_pr__nfet_01v8 ad=0.1113 pd=1.37 as=0.1113 ps=1.37 w=0.42 l=0.15
X41 a_n9123_n1309# IIn IIn VddA18 sky130_fd_pr__pfet_01v8_lvt ad=2.385 pd=18.53 as=2.385 ps=18.53 w=9 l=1
X42 a_n8668_1590# a_n8760_73# VddA18 VddA18 sky130_fd_pr__pfet_01v8 ad=4.48 pd=32.28 as=4.48 ps=32.28 w=32 l=0.5
X43 VddA18 a_n8760_73# a_n8668_1590# VddA18 sky130_fd_pr__pfet_01v8 ad=4.48 pd=32.28 as=4.48 ps=32.28 w=32 l=0.5
X44 VddA18 a_n8760_73# a_n9486_n270# VddA18 sky130_fd_pr__pfet_01v8 ad=4.48 pd=32.28 as=4.48 ps=32.28 w=32 l=0.5
X45 VddA18 a_4774_815# a_5726_1215# VddA18 sky130_fd_pr__pfet_01v8_lvt ad=1.06 pd=8.53 as=0.56 ps=4.28 w=4 l=2
X46 a_n9486_n270# a_n8760_73# VddA18 VddA18 sky130_fd_pr__pfet_01v8 ad=4.48 pd=32.28 as=4.48 ps=32.28 w=32 l=0.5
X47 VddA18 a_n8760_73# a_n9486_n270# VddA18 sky130_fd_pr__pfet_01v8 ad=4.48 pd=32.28 as=4.48 ps=32.28 w=32 l=0.5
X48 IOut LowBiasEn a_n8668_1590# VddA18 sky130_fd_pr__pfet_01v8_hvt ad=4.48 pd=32.28 as=8.48 ps=64.53 w=32 l=0.5
X49 a_n8668_1590# LowBiasEn IOut VddA18 sky130_fd_pr__pfet_01v8_hvt ad=4.48 pd=32.28 as=4.48 ps=32.28 w=32 l=0.5
X50 a_n8668_1590# LowBiasEn IOut VddA18 sky130_fd_pr__pfet_01v8_hvt ad=4.48 pd=32.28 as=4.48 ps=32.28 w=32 l=0.5
X51 VddA18 a_n8760_73# a_n9486_n270# VddA18 sky130_fd_pr__pfet_01v8 ad=8.48 pd=64.53 as=4.48 ps=32.28 w=32 l=0.5
X52 a_4774_815# nLowBiasEn a_n9123_n1309# VddA18 sky130_fd_pr__pfet_01v8_lvt ad=0.56 pd=4.28 as=0.56 ps=4.28 w=4 l=2
X53 a_n9123_n1309# LowBiasEn a_n9486_n270# VddA18 sky130_fd_pr__pfet_01v8_hvt ad=4.48 pd=32.28 as=4.48 ps=32.28 w=32 l=0.5
X54 VddA18 a_n8760_73# a_n8668_1590# VddA18 sky130_fd_pr__pfet_01v8 ad=4.48 pd=32.28 as=4.48 ps=32.28 w=32 l=0.5
X55 a_5726_n150# nLowBiasEn IOut VddA18 sky130_fd_pr__pfet_01v8_lvt ad=0.56 pd=4.28 as=0.56 ps=4.28 w=4 l=2
X56 a_n9486_n270# a_n8760_73# VddA18 VddA18 sky130_fd_pr__pfet_01v8 ad=4.48 pd=32.28 as=8.48 ps=64.53 w=32 l=0.5
X57 a_n9486_n270# LowBiasEn a_n9123_n1309# VddA18 sky130_fd_pr__pfet_01v8_hvt ad=8.48 pd=64.53 as=4.48 ps=32.28 w=32 l=0.5
X58 VddA18 a_n8760_73# a_n8668_1590# VddA18 sky130_fd_pr__pfet_01v8 ad=8.48 pd=64.53 as=4.48 ps=32.28 w=32 l=0.5
X59 a_n8668_1590# a_n8760_73# VddA18 VddA18 sky130_fd_pr__pfet_01v8 ad=4.48 pd=32.28 as=8.48 ps=64.53 w=32 l=0.5
X60 VddA18 a_n8760_73# a_n9486_n270# VddA18 sky130_fd_pr__pfet_01v8 ad=4.48 pd=32.28 as=4.48 ps=32.28 w=32 l=0.5
X61 a_n9486_n270# a_n8760_73# VddA18 VddA18 sky130_fd_pr__pfet_01v8 ad=4.48 pd=32.28 as=4.48 ps=32.28 w=32 l=0.5
X62 a_n9123_n1309# IIn IIn VddA18 sky130_fd_pr__pfet_01v8_lvt ad=2.385 pd=18.53 as=2.385 ps=18.53 w=9 l=1
X63 a_n8668_1590# a_n8760_73# VddA18 VddA18 sky130_fd_pr__pfet_01v8 ad=4.48 pd=32.28 as=4.48 ps=32.28 w=32 l=0.5
X64 a_4774_815# a_4774_815# a_4866_1215# VddA18 sky130_fd_pr__pfet_01v8_lvt ad=1.06 pd=8.53 as=0.56 ps=4.28 w=4 l=2
X65 a_n9486_n270# a_n8760_73# VddA18 VddA18 sky130_fd_pr__pfet_01v8 ad=4.48 pd=32.28 as=4.48 ps=32.28 w=32 l=0.5
.ends

.subckt scs130hd_nor2_1 vpb vnb vpwr vgnd Y B A
X0 vpwr A a_109_297# vpb sky130_fd_pr__pfet_01v8_hvt ad=0.26 pd=2.52 as=0.105 ps=1.21 w=1 l=0.15
X1 vgnd A Y vnb sky130_fd_pr__nfet_01v8 ad=0.169 pd=1.82 as=0.08775 ps=0.92 w=0.65 l=0.15
X2 a_109_297# B Y vpb sky130_fd_pr__pfet_01v8_hvt ad=0.105 pd=1.21 as=0.26 ps=2.52 w=1 l=0.15
X3 Y B vgnd vnb sky130_fd_pr__nfet_01v8 ad=0.08775 pd=0.92 as=0.169 ps=1.82 w=0.65 l=0.15
.ends

.subckt scs130hd_inv_1 vpb vnb vpwr vgnd Y A
X0 Y A vgnd vnb sky130_fd_pr__nfet_01v8 ad=0.169 pd=1.82 as=0.169 ps=1.82 w=0.65 l=0.15
X1 Y A vpwr vpb sky130_fd_pr__pfet_01v8_hvt ad=0.26 pd=2.52 as=0.26 ps=2.52 w=1 l=0.15
.ends

.subckt scs130hd_and2_1 vgnd vpwr A B X vpb vnb
X0 vpwr B a_59_75# vpb sky130_fd_pr__pfet_01v8_hvt ad=0.16655 pd=1.39 as=0.0567 ps=0.69 w=0.42 l=0.15
X1 X a_59_75# vpwr vpb sky130_fd_pr__pfet_01v8_hvt ad=0.475 pd=2.95 as=0.16655 ps=1.39 w=1 l=0.15
X2 vgnd B a_145_75# vnb sky130_fd_pr__nfet_01v8 ad=0.1118 pd=1.04 as=0.0567 ps=0.69 w=0.42 l=0.15
X3 a_59_75# A vpwr vpb sky130_fd_pr__pfet_01v8_hvt ad=0.0567 pd=0.69 as=0.1176 ps=1.4 w=0.42 l=0.15
X4 X a_59_75# vgnd vnb sky130_fd_pr__nfet_01v8 ad=0.182 pd=1.86 as=0.1118 ps=1.04 w=0.65 l=0.15
X5 a_145_75# A a_59_75# vnb sky130_fd_pr__nfet_01v8 ad=0.0567 pd=0.69 as=0.1176 ps=1.4 w=0.42 l=0.15
.ends

.subckt BiasBuffers BufferNBias BIT0 VddA18 GND SplitterOutput NBiasEnabled PBiasEnabled
+ BiasDisabled PowerDown BufferPBias VBiasOut PadBias
Xscs130hd_nor2_1_0 VddA18 GND VddA18 GND scs130hd_inv_1_3/A BiasDisabled PowerDown
+ scs130hd_nor2_1
Xscs130hd_inv_1_0 VddA18 GND VddA18 GND scs130hd_inv_1_1/A BIT0 scs130hd_inv_1
Xscs130hd_and2_1_0 GND VddA18 scs130hd_inv_1_3/A PBiasEnabled scs130hd_and2_1_0/X
+ VddA18 GND scs130hd_and2_1
Xscs130hd_inv_1_1 VddA18 GND VddA18 GND scs130hd_inv_1_1/Y scs130hd_inv_1_1/A scs130hd_inv_1
Xscs130hd_inv_1_2 VddA18 GND VddA18 GND scs130hd_inv_1_2/Y PowerDown scs130hd_inv_1
Xscs130hd_inv_1_3 VddA18 GND VddA18 GND scs130hd_inv_1_3/Y scs130hd_inv_1_3/A scs130hd_inv_1
X0 VddA18 scs130hd_inv_1_3/Y a_7275_4210# VddA18 sky130_fd_pr__pfet_01v8 ad=0.265 pd=2.53 as=0.265 ps=2.53 w=1 l=0.15
X1 a_7650_2474# SplitterOutput a_7275_4210# GND sky130_fd_pr__nfet_01v8_lvt ad=0.888 pd=3.14 as=0.636 ps=5.33 w=2.4 l=0.24
X2 a_11534_4210# a_9449_4210# a_11288_2204# VddA18 sky130_fd_pr__pfet_01v8_lvt ad=0.888 pd=3.14 as=0.888 ps=3.14 w=2.4 l=0.38
X3 PadBias PowerDown VBiasOut GND sky130_fd_pr__nfet_01v8 ad=1.06 pd=8.53 as=1.48 ps=4.74 w=4 l=0.15
X4 GND scs130hd_and2_1_0/X a_11534_4210# GND sky130_fd_pr__nfet_01v8 ad=0.265 pd=2.53 as=0.265 ps=2.53 w=1 l=0.15
X5 GND BufferNBias a_1598_677# GND sky130_fd_pr__nfet_01v8_lvt ad=1.59 pd=12.53 as=1.59 ps=12.53 w=6 l=6
X6 GND BufferNBias a_1598_677# GND sky130_fd_pr__nfet_01v8_lvt ad=1.59 pd=12.53 as=1.59 ps=12.53 w=6 l=6
X7 GND BufferNBias a_1598_677# GND sky130_fd_pr__nfet_01v8_lvt ad=1.59 pd=12.53 as=1.59 ps=12.53 w=6 l=6
X8 a_1598_677# scs130hd_inv_1_1/Y a_10376_2544# GND sky130_fd_pr__nfet_01v8 ad=0.265 pd=2.53 as=0.25125 ps=1.74 w=1 l=0.15
X9 a_1598_677# BufferNBias GND GND sky130_fd_pr__nfet_01v8_lvt ad=1.59 pd=12.53 as=1.59 ps=12.53 w=6 l=6
X10 VBiasOut PowerDown a_8068_4210# VddA18 sky130_fd_pr__pfet_01v8 ad=1.06 pd=8.53 as=1.06 ps=8.53 w=4 l=0.38
X11 a_1598_677# BufferNBias GND GND sky130_fd_pr__nfet_01v8_lvt ad=1.59 pd=12.53 as=1.59 ps=12.53 w=6 l=6
X12 GND BufferNBias a_1598_677# GND sky130_fd_pr__nfet_01v8_lvt ad=1.59 pd=12.53 as=1.59 ps=12.53 w=6 l=6
X13 a_7650_2474# SplitterOutput a_7275_4210# GND sky130_fd_pr__nfet_01v8_lvt ad=0.888 pd=3.14 as=0.888 ps=3.14 w=2.4 l=0.24
X14 PadBias scs130hd_inv_1_2/Y VBiasOut VddA18 sky130_fd_pr__pfet_01v8 ad=1.06 pd=8.53 as=1.06 ps=8.53 w=4 l=0.38
X15 a_7650_2474# SplitterOutput a_7275_4210# GND sky130_fd_pr__nfet_01v8_lvt ad=0.888 pd=3.14 as=0.888 ps=3.14 w=2.4 l=0.24
X16 a_1598_677# BufferNBias GND GND sky130_fd_pr__nfet_01v8_lvt ad=1.59 pd=12.53 as=1.59 ps=12.53 w=6 l=6
X17 a_7650_2474# SplitterOutput a_7275_4210# GND sky130_fd_pr__nfet_01v8_lvt ad=0.888 pd=3.14 as=0.888 ps=3.14 w=2.4 l=0.24
X18 GND BufferNBias a_1598_677# GND sky130_fd_pr__nfet_01v8_lvt ad=1.59 pd=12.53 as=1.59 ps=12.53 w=6 l=6
X19 a_7650_2474# scs130hd_inv_1_1/Y a_1598_677# VddA18 sky130_fd_pr__pfet_01v8 ad=0.265 pd=2.53 as=0.265 ps=2.53 w=1 l=0.38
X20 a_11534_4210# a_9449_4210# a_11288_2204# VddA18 sky130_fd_pr__pfet_01v8_lvt ad=0.888 pd=3.14 as=0.568 ps=3.165 w=2.4 l=0.38
X21 a_11288_2204# a_9449_4210# a_11534_4210# VddA18 sky130_fd_pr__pfet_01v8_lvt ad=0.636 pd=5.33 as=0.888 ps=3.14 w=2.4 l=0.38
X22 a_1598_677# BufferNBias GND GND sky130_fd_pr__nfet_01v8_lvt ad=1.59 pd=12.53 as=1.59 ps=12.53 w=6 l=6
X23 a_11288_2204# scs130hd_inv_1_1/Y a_8849_4119# VddA18 sky130_fd_pr__pfet_01v8 ad=0.568 pd=3.165 as=0.8375 ps=4.88 w=1 l=0.38
X24 a_7650_2474# SplitterOutput a_7275_4210# GND sky130_fd_pr__nfet_01v8_lvt ad=0.888 pd=3.14 as=0.888 ps=3.14 w=2.4 l=0.24
X25 a_11288_2204# scs130hd_inv_1_1/A a_8849_4119# GND sky130_fd_pr__nfet_01v8 ad=0.265 pd=2.53 as=0.265 ps=2.53 w=1 l=0.38
X26 a_11288_2204# a_9449_4210# a_11534_4210# VddA18 sky130_fd_pr__pfet_01v8_lvt ad=0.888 pd=3.14 as=0.888 ps=3.14 w=2.4 l=0.38
X27 a_11534_4210# a_9449_4210# a_11288_2204# VddA18 sky130_fd_pr__pfet_01v8_lvt ad=0.888 pd=3.14 as=0.888 ps=3.14 w=2.4 l=0.38
X28 a_7650_2474# scs130hd_inv_1_1/A a_1598_677# GND sky130_fd_pr__nfet_01v8 ad=0.265 pd=2.53 as=0.265 ps=2.53 w=1 l=0.15
X29 VBiasOut scs130hd_inv_1_2/Y a_8068_4210# GND sky130_fd_pr__nfet_01v8 ad=1.48 pd=4.74 as=1.06 ps=8.53 w=4 l=0.15
X30 VddA18 a_8849_4119# a_9449_4210# VddA18 sky130_fd_pr__pfet_01v8 ad=1.59 pd=12.53 as=2.22 ps=6.74 w=6 l=3
X31 a_8849_4119# BufferPBias VddA18 VddA18 sky130_fd_pr__pfet_01v8_lvt ad=2.22 pd=6.74 as=1.59 ps=12.53 w=6 l=3
X32 a_7275_4210# SplitterOutput a_7650_2474# GND sky130_fd_pr__nfet_01v8_lvt ad=0.888 pd=3.14 as=0.888 ps=3.14 w=2.4 l=0.24
X33 GND a_1598_677# SplitterOutput GND sky130_fd_pr__nfet_01v8 ad=1.59 pd=12.53 as=1.59 ps=12.53 w=6 l=6
X34 a_8849_4119# PBiasEnabled a_8068_4210# GND sky130_fd_pr__nfet_01v8 ad=1.06 pd=8.53 as=1.48 ps=4.74 w=4 l=0.15
X35 a_11288_2204# a_9449_4210# a_11534_4210# VddA18 sky130_fd_pr__pfet_01v8_lvt ad=0.888 pd=3.14 as=0.888 ps=3.14 w=2.4 l=0.38
X36 a_1598_677# BufferNBias GND GND sky130_fd_pr__nfet_01v8_lvt ad=1.59 pd=12.53 as=1.59 ps=12.53 w=6 l=6
X37 GND BufferNBias a_1598_677# GND sky130_fd_pr__nfet_01v8_lvt ad=1.59 pd=12.53 as=1.59 ps=12.53 w=6 l=6
X38 GND BufferNBias a_1598_677# GND sky130_fd_pr__nfet_01v8_lvt ad=1.59 pd=12.53 as=1.59 ps=12.53 w=6 l=6
X39 GND BufferNBias a_1598_677# GND sky130_fd_pr__nfet_01v8_lvt ad=1.59 pd=12.53 as=1.59 ps=12.53 w=6 l=6
X40 a_1598_677# BufferNBias GND GND sky130_fd_pr__nfet_01v8_lvt ad=1.59 pd=12.53 as=1.59 ps=12.53 w=6 l=6
X41 a_7275_4210# SplitterOutput a_7650_2474# GND sky130_fd_pr__nfet_01v8_lvt ad=0.888 pd=3.14 as=0.888 ps=3.14 w=2.4 l=0.24
X42 a_10376_2544# SplitterOutput a_7275_4210# GND sky130_fd_pr__nfet_01v8_lvt ad=0.25125 pd=1.74 as=0.43675 ps=3.14 w=0.5 l=2.4
X43 a_8849_4119# scs130hd_inv_1_1/Y a_13395_4210# GND sky130_fd_pr__nfet_01v8 ad=0.265 pd=2.53 as=0.265 ps=2.53 w=1 l=0.38
X44 a_7275_4210# SplitterOutput a_7650_2474# GND sky130_fd_pr__nfet_01v8_lvt ad=0.888 pd=3.14 as=0.888 ps=3.14 w=2.4 l=0.24
X45 a_1598_677# BufferNBias GND GND sky130_fd_pr__nfet_01v8_lvt ad=1.59 pd=12.53 as=1.59 ps=12.53 w=6 l=6
X46 a_1598_677# BufferNBias GND GND sky130_fd_pr__nfet_01v8_lvt ad=1.59 pd=12.53 as=1.59 ps=12.53 w=6 l=6
X47 a_1598_677# scs130hd_inv_1_1/A a_10376_2544# VddA18 sky130_fd_pr__pfet_01v8 ad=0.7775 pd=4.76 as=0.265 ps=2.53 w=1 l=0.38
X48 a_7275_4210# SplitterOutput a_7650_2474# GND sky130_fd_pr__nfet_01v8_lvt ad=0.43675 pd=3.14 as=0.888 ps=3.14 w=2.4 l=0.24
X49 a_9449_4210# a_8849_4119# VddA18 VddA18 sky130_fd_pr__pfet_01v8 ad=2.22 pd=6.74 as=1.59 ps=12.53 w=6 l=3
X50 a_8849_4119# NBiasEnabled a_8068_4210# VddA18 sky130_fd_pr__pfet_01v8 ad=0.8375 pd=4.88 as=1.48 ps=4.74 w=4 l=0.38
X51 a_8849_4119# scs130hd_inv_1_1/A a_13395_4210# VddA18 sky130_fd_pr__pfet_01v8 ad=0.265 pd=2.53 as=0.26625 ps=1.8 w=1 l=0.38
X52 a_9449_4210# a_1598_677# GND GND sky130_fd_pr__nfet_01v8 ad=1.59 pd=12.53 as=1.59 ps=12.53 w=6 l=6
X53 VddA18 BufferPBias a_8849_4119# VddA18 sky130_fd_pr__pfet_01v8_lvt ad=1.59 pd=12.53 as=2.22 ps=6.74 w=6 l=3
X54 a_8068_4210# PBiasEnabled a_1598_677# VddA18 sky130_fd_pr__pfet_01v8 ad=1.48 pd=4.74 as=0.7775 ps=4.76 w=4 l=0.38
X55 a_7275_4210# SplitterOutput a_7650_2474# GND sky130_fd_pr__nfet_01v8_lvt ad=0.888 pd=3.14 as=0.888 ps=3.14 w=2.4 l=0.24
X56 a_8068_4210# NBiasEnabled a_1598_677# GND sky130_fd_pr__nfet_01v8 ad=1.48 pd=4.74 as=1.06 ps=8.53 w=4 l=0.15
X57 a_13395_4210# a_9449_4210# a_11534_4210# VddA18 sky130_fd_pr__pfet_01v8_lvt ad=0.26625 pd=1.8 as=0.3075 ps=2.23 w=0.5 l=2.4
.ends

.subckt BiasDividerFineCell VGate Sel nSel INOut IOut VddA18 IPrev INext
X0 IPrev VGate a_651_1380# VddA18 sky130_fd_pr__pfet_01v8_lvt ad=3.42 pd=9.76 as=3.465 ps=9.77 w=9 l=1
X1 a_651_1028# Sel INOut VddA18 sky130_fd_pr__pfet_01v8_hvt ad=1.455 pd=6.835 as=0.53 ps=4.53 w=2 l=0.5
X2 INext VGate IPrev VddA18 sky130_fd_pr__pfet_01v8_lvt ad=3.42 pd=9.76 as=3.42 ps=9.76 w=9 l=1
X3 IPrev VGate INext VddA18 sky130_fd_pr__pfet_01v8_lvt ad=3.42 pd=9.76 as=3.42 ps=9.76 w=9 l=1
X4 a_651_1380# VGate a_651_1028# VddA18 sky130_fd_pr__pfet_01v8_lvt ad=3.465 pd=9.77 as=1.455 ps=6.835 w=9 l=1
X5 a_651_1028# nSel IOut VddA18 sky130_fd_pr__pfet_01v8_hvt ad=1.455 pd=6.835 as=0.53 ps=4.53 w=2 l=0.5
X6 a_651_1028# VGate a_651_1380# VddA18 sky130_fd_pr__pfet_01v8_lvt ad=2.385 pd=18.53 as=3.42 ps=9.76 w=9 l=1
X7 a_651_1380# VGate IPrev VddA18 sky130_fd_pr__pfet_01v8_lvt ad=3.42 pd=9.76 as=3.42 ps=9.76 w=9 l=1
.ends

.subckt BiasDividerFine Q0 nQ0 Q1 nQ1 nQ2 Q3 nQ3 Q4 nQ4 Q6 Q7 VGate GndA VddA18 IIn
+ IOut Q2 nQ7 Q5 nQ6 nQ5
XBiasDividerFineCell_0[0] VGate Q7 nQ7 BiasDividerFineCell_0[7]/INOut IOut VddA18
+ IIn BiasDividerFineCell_0[1]/IPrev BiasDividerFineCell
XBiasDividerFineCell_0[1] VGate Q6 nQ6 BiasDividerFineCell_0[7]/INOut IOut VddA18
+ BiasDividerFineCell_0[1]/IPrev BiasDividerFineCell_0[2]/IPrev BiasDividerFineCell
XBiasDividerFineCell_0[2] VGate Q5 nQ5 BiasDividerFineCell_0[7]/INOut IOut VddA18
+ BiasDividerFineCell_0[2]/IPrev BiasDividerFineCell_0[3]/IPrev BiasDividerFineCell
XBiasDividerFineCell_0[3] VGate Q4 nQ4 BiasDividerFineCell_0[7]/INOut IOut VddA18
+ BiasDividerFineCell_0[3]/IPrev BiasDividerFineCell_0[4]/IPrev BiasDividerFineCell
XBiasDividerFineCell_0[4] VGate Q3 nQ3 BiasDividerFineCell_0[7]/INOut IOut VddA18
+ BiasDividerFineCell_0[4]/IPrev BiasDividerFineCell_0[5]/IPrev BiasDividerFineCell
XBiasDividerFineCell_0[5] VGate Q2 nQ2 BiasDividerFineCell_0[7]/INOut IOut VddA18
+ BiasDividerFineCell_0[5]/IPrev BiasDividerFineCell_0[6]/IPrev BiasDividerFineCell
XBiasDividerFineCell_0[6] VGate Q1 nQ1 BiasDividerFineCell_0[7]/INOut IOut VddA18
+ BiasDividerFineCell_0[6]/IPrev BiasDividerFineCell_0[7]/IPrev BiasDividerFineCell
XBiasDividerFineCell_0[7] VGate Q0 nQ0 BiasDividerFineCell_0[7]/INOut IOut VddA18
+ BiasDividerFineCell_0[7]/IPrev BiasDividerFineCell_0[7]/INext BiasDividerFineCell
X0 BiasDividerFineCell_0[7]/INext VGate BiasDividerFineCell_0[7]/INOut VddA18 sky130_fd_pr__pfet_01v8_lvt ad=3.3975 pd=9.755 as=2.385 ps=18.53 w=9 l=1
X1 BiasDividerFineCell_0[7]/INOut BiasDividerFineCell_0[7]/INOut GndA GndA sky130_fd_pr__nfet_01v8_lvt ad=2.12 pd=16.53 as=2.12 ps=16.53 w=8 l=0.8
X2 BiasDividerFineCell_0[7]/INOut VGate BiasDividerFineCell_0[7]/INext VddA18 sky130_fd_pr__pfet_01v8_lvt ad=2.385 pd=18.53 as=3.3975 ps=9.755 w=9 l=1
.ends

.subckt BiasBranch nLowBiasInterfaceEn BufferP VddA18 nFineCode[6] NBiasEn BiasDisable
+ BIT0 PowerDown FineCode[6] FineCode[7] CoarseOneHot[1] CoarseOneHot[0] CoarseOneHot[2]
+ BiasCB[0] CoarseOneHot[3] BiasCB[1] CoarseOneHot[4] PBiasEn BiasCB[2] CoarseOneHot[5]
+ BiasCB[3] BiasCB[4] CoarseOneHot[7] BiasCB[5] LowBiasInterfaceEn BiasCB[6] CoarseOneHot[6]
+ BiasCB[7] PadBias nFineCode[0] FineCode[0] FineCode[1] nFineCode[1] FineCode[2]
+ nFineCode[2] VBiasOut FineCode[3] nFineCode[3] FineCode[4] BufferN nFineCode[4]
+ nFineCode[7] GndA FineCode[5] nFineCode[5] CoarseOneHotLowBiasEn
XBiasCoarseSel8to1_0 CoarseOneHot[0] CoarseOneHot[1] CoarseOneHot[2] CoarseOneHot[3]
+ CoarseOneHot[4] CoarseOneHot[5] CoarseOneHot[6] CoarseOneHot[7] VddA18 BiasCB[0]
+ BiasCB[1] BiasCB[2] BiasCB[3] BiasCB[4] BiasCB[5] BiasCB[6] BiasCB[7] GndA BiasDividerFine_0/VGate
+ CoarseOneHotLowBiasEn BiasCoarseSel8to1
XBiasCoarseFineInterface_0 BiasDividerFine_0/IIn VddA18 BiasDividerFine_0/VGate GndA
+ nLowBiasInterfaceEn LowBiasInterfaceEn BiasCoarseFineInterface
XBiasBuffers_0 BufferN BIT0 VddA18 GndA BiasDividerFine_0/IOut NBiasEn PBiasEn BiasDisable
+ PowerDown BufferP VBiasOut PadBias BiasBuffers
XBiasDividerFine_0 FineCode[0] nFineCode[0] FineCode[1] nFineCode[1] nFineCode[2]
+ FineCode[3] nFineCode[3] FineCode[4] nFineCode[4] FineCode[6] FineCode[7] BiasDividerFine_0/VGate
+ GndA VddA18 BiasDividerFine_0/IIn BiasDividerFine_0/IOut FineCode[2] nFineCode[7]
+ FineCode[5] nFineCode[6] nFineCode[5] BiasDividerFine
.ends

.subckt BiasBranchBuffer nFineCode[6] FineCode[6] nFineCode[7] FineCode[7] nLowBiasInterfaceEn
+ BufferN CoarseOneHot[3] CoarseOneHot[4] CoarseOneHot[5] BufferP CoarseOneHot[6]
+ CoarseOneHot[7] CoarseOneHot[0] CoarseOneHot[1] BiasCB[0] BiasCB[1] BiasCB[2] BiasCB[3]
+ BiasCB[4] CoarseOneHot[2] BiasCB[5] BiasCB[6] LowBiasInterfaceEn BiasCB[7] nFineCode[0]
+ FineCode[0] FineCode[1] VddA18 nFineCode[1] FineCode[2] nFineCode[2] nFineCode[3]
+ FineCode[3] nFineCode[4] FineCode[4] CoarseOneHotLowBiasEn nFineCode[5] FineCode[5]
+ GndA
XBiasCoarseSel8to1_0 CoarseOneHot[0] CoarseOneHot[1] CoarseOneHot[2] CoarseOneHot[3]
+ CoarseOneHot[4] CoarseOneHot[5] CoarseOneHot[6] CoarseOneHot[7] VddA18 BiasCB[0]
+ BiasCB[1] BiasCB[2] BiasCB[3] BiasCB[4] BiasCB[5] BiasCB[6] BiasCB[7] GndA BiasDividerFine_0/VGate
+ CoarseOneHotLowBiasEn BiasCoarseSel8to1
XBiasCoarseFineInterface_0 BiasDividerFine_0/IIn VddA18 BiasDividerFine_0/VGate GndA
+ nLowBiasInterfaceEn LowBiasInterfaceEn BiasCoarseFineInterface
XBiasDividerFine_0 FineCode[0] nFineCode[0] FineCode[1] nFineCode[1] nFineCode[2]
+ FineCode[3] nFineCode[3] FineCode[4] nFineCode[4] FineCode[6] FineCode[7] BiasDividerFine_0/VGate
+ GndA VddA18 BiasDividerFine_0/IIn BufferN FineCode[2] nFineCode[7] FineCode[5] nFineCode[6]
+ nFineCode[5] BiasDividerFine
X0 BufferN BufferN GndA GndA sky130_fd_pr__nfet_01v8_lvt ad=0.84 pd=6.28 as=0.84 ps=6.28 w=6 l=6
X1 BufferN BufferN GndA GndA sky130_fd_pr__nfet_01v8_lvt ad=0.84 pd=6.28 as=0.84 ps=6.28 w=6 l=6
X2 BufferP BufferN GndA GndA sky130_fd_pr__nfet_01v8_lvt ad=1.59 pd=12.53 as=0.84 ps=6.28 w=6 l=6
X3 BufferN BufferN GndA GndA sky130_fd_pr__nfet_01v8_lvt ad=0.84 pd=6.28 as=0.84 ps=6.28 w=6 l=6
X4 GndA BufferN BufferP GndA sky130_fd_pr__nfet_01v8_lvt ad=0.84 pd=6.28 as=0.84 ps=6.28 w=6 l=6
X5 GndA BufferN BufferN GndA sky130_fd_pr__nfet_01v8_lvt ad=1.59 pd=12.53 as=0.84 ps=6.28 w=6 l=6
X6 BufferP BufferP VddA18 VddA18 sky130_fd_pr__pfet_01v8_lvt ad=1.59 pd=12.53 as=1.59 ps=12.53 w=6 l=3
X7 BufferP BufferN GndA GndA sky130_fd_pr__nfet_01v8_lvt ad=0.84 pd=6.28 as=0.84 ps=6.28 w=6 l=6
X8 GndA BufferN BufferN GndA sky130_fd_pr__nfet_01v8_lvt ad=0.84 pd=6.28 as=0.84 ps=6.28 w=6 l=6
X9 GndA BufferN BufferN GndA sky130_fd_pr__nfet_01v8_lvt ad=0.84 pd=6.28 as=0.84 ps=6.28 w=6 l=6